# CIF file generated by openbabel 2.4.1, see http://openbabel.sf.net
data_I
_chemical_name_common '?'
_cell_length_a 14.8474
_cell_length_b 14.8474
_cell_length_c 11.8056
_cell_angle_alpha 90
_cell_angle_beta 90
_cell_angle_gamma 90
_space_group_name_H-M_alt 'P 1'
_space_group_name_Hall 'P 1'
loop_
    _symmetry_equiv_pos_as_xyz
    x,y,z
loop_
    _atom_site_label
    _atom_site_type_symbol
    _atom_site_fract_x
    _atom_site_fract_y
    _atom_site_fract_z
    _atom_site_occupancy
    AL      Al   0.30668   0.69332   0.50000   1.000
    O1      O    0.75093   0.25000   0.62500   1.000
    O2      O    0.87680   0.12169   0.10281   1.000
    O3      O    0.89634   0.21365   0.25360   1.000
    C1      C    0.85735   0.09466   0.79858   1.000
    C2      C    0.53958   0.43084   0.75958   1.000
    C3      C    0.50000   0.50000   0.69441   1.000
    C4      C    0.54005   0.42960   0.87811   1.000
    C5      C    0.50000   0.50000   0.93693   1.000
    H3      H    0.50000   0.50000   0.61250   1.000
    H4      H    0.57318   0.38162   0.90735   1.000
    AL      Al   0.19332   0.80668   0.00000   1.000
    AL      Al   0.30668   0.80668   0.75000   1.000
    AL      Al   0.19332   0.69332   0.25000   1.000
    AL      Al   0.80668   0.19332   0.00000   1.000
    AL      Al   0.69332   0.30668   0.50000   1.000
    AL      Al   0.80668   0.30668   0.25000   1.000
    AL      Al   0.69332   0.19332   0.75000   1.000
    O1      O    0.74907   0.25000   0.12500   1.000
    O1      O    0.75000   0.25093   0.87500   1.000
    O1      O    0.75000   0.24907   0.37500   1.000
    O1      O    0.25093   0.75000   0.12500   1.000
    O1      O    0.24907   0.75000   0.62500   1.000
    O1      O    0.25000   0.75093   0.37500   1.000
    O1      O    0.25000   0.74907   0.87500   1.000
    O2      O    0.62320   0.37831   0.60281   1.000
    O2      O    0.87831   0.37680   0.35281   1.000
    O2      O    0.62169   0.12320   0.85281   1.000
    O2      O    0.62320   0.12169   0.64719   1.000
    O2      O    0.87680   0.37831   0.14719   1.000
    O2      O    0.62169   0.37680   0.39719   1.000
    O2      O    0.87831   0.12320   0.89719   1.000
    O2      O    0.37680   0.62169   0.60281   1.000
    O2      O    0.12320   0.87831   0.10281   1.000
    O2      O    0.37831   0.87680   0.85281   1.000
    O2      O    0.12169   0.62320   0.35281   1.000
    O2      O    0.12320   0.62169   0.14719   1.000
    O2      O    0.37680   0.87831   0.64719   1.000
    O2      O    0.12169   0.87680   0.89719   1.000
    O2      O    0.37831   0.62320   0.39719   1.000
    O3      O    0.60366   0.28635   0.75360   1.000
    O3      O    0.78635   0.39634   0.50360   1.000
    O3      O    0.71365   0.10366   0.00360   1.000
    O3      O    0.60366   0.21365   0.49640   1.000
    O3      O    0.89634   0.28635   0.99640   1.000
    O3      O    0.71365   0.39634   0.24640   1.000
    O3      O    0.78635   0.10366   0.74640   1.000
    O3      O    0.39634   0.71365   0.75360   1.000
    O3      O    0.10366   0.78635   0.25360   1.000
    O3      O    0.28635   0.89634   0.00360   1.000
    O3      O    0.21365   0.60366   0.50360   1.000
    O3      O    0.10366   0.71365   0.99640   1.000
    O3      O    0.39634   0.78635   0.49640   1.000
    O3      O    0.21365   0.89634   0.74640   1.000
    O3      O    0.28635   0.60366   0.24640   1.000
    C1      C    0.64265   0.40534   0.29858   1.000
    C1      C    0.90534   0.35735   0.04858   1.000
    C1      C    0.59466   0.14265   0.54858   1.000
    C1      C    0.64265   0.09466   0.95142   1.000
    C1      C    0.85735   0.40534   0.45142   1.000
    C1      C    0.59466   0.35735   0.70142   1.000
    C1      C    0.90534   0.14265   0.20142   1.000
    C1      C    0.35735   0.59466   0.29858   1.000
    C1      C    0.14265   0.90534   0.79858   1.000
    C1      C    0.40534   0.85735   0.54858   1.000
    C1      C    0.09466   0.64265   0.04858   1.000
    C1      C    0.14265   0.59466   0.45142   1.000
    C1      C    0.35735   0.90534   0.95142   1.000
    C1      C    0.09466   0.85735   0.20142   1.000
    C1      C    0.40534   0.64265   0.70142   1.000
    C2      C    0.96042   0.06916   0.25958   1.000
    C2      C    0.56916   0.03958   0.00958   1.000
    C2      C    0.93084   0.46042   0.50958   1.000
    C2      C    0.96042   0.43084   0.99042   1.000
    C2      C    0.53958   0.06916   0.49042   1.000
    C2      C    0.93084   0.03958   0.74042   1.000
    C2      C    0.56916   0.46042   0.24042   1.000
    C2      C    0.03958   0.93084   0.25958   1.000
    C2      C    0.46042   0.56916   0.75958   1.000
    C2      C    0.06916   0.53958   0.50958   1.000
    C2      C    0.43084   0.96042   0.00958   1.000
    C2      C    0.46042   0.93084   0.49042   1.000
    C2      C    0.03958   0.56916   0.99042   1.000
    C2      C    0.43084   0.53958   0.24042   1.000
    C2      C    0.06916   0.96042   0.74042   1.000
    C3      C    0.00000   0.00000   0.19441   1.000
    C3      C    0.50000   0.00000   0.94441   1.000
    C3      C    0.00000   0.50000   0.44441   1.000
    C3      C    0.00000   0.50000   0.05559   1.000
    C3      C    0.50000   0.00000   0.55559   1.000
    C3      C    0.00000   0.00000   0.80559   1.000
    C3      C    0.50000   0.50000   0.30559   1.000
    C4      C    0.95995   0.07040   0.37811   1.000
    C4      C    0.57040   0.04005   0.12811   1.000
    C4      C    0.92960   0.45995   0.62811   1.000
    C4      C    0.95995   0.42960   0.87189   1.000
    C4      C    0.54005   0.07040   0.37189   1.000
    C4      C    0.92960   0.04005   0.62189   1.000
    C4      C    0.57040   0.45995   0.12189   1.000
    C4      C    0.04005   0.92960   0.37811   1.000
    C4      C    0.45995   0.57040   0.87811   1.000
    C4      C    0.07040   0.54005   0.62811   1.000
    C4      C    0.42960   0.95995   0.12811   1.000
    C4      C    0.45995   0.92960   0.37189   1.000
    C4      C    0.04005   0.57040   0.87189   1.000
    C4      C    0.42960   0.54005   0.12189   1.000
    C4      C    0.07040   0.95995   0.62189   1.000
    C5      C    0.00000   0.00000   0.43693   1.000
    C5      C    0.50000   0.00000   0.18693   1.000
    C5      C    0.00000   0.50000   0.68693   1.000
    C5      C    0.00000   0.50000   0.81307   1.000
    C5      C    0.50000   0.00000   0.31307   1.000
    C5      C    0.00000   0.00000   0.56307   1.000
    C5      C    0.50000   0.50000   0.06307   1.000
    H3      H    0.00000   0.00000   0.11250   1.000
    H3      H    0.50000   0.00000   0.86250   1.000
    H3      H    0.00000   0.50000   0.36250   1.000
    H3      H    0.00000   0.50000   0.13750   1.000
    H3      H    0.50000   0.00000   0.63750   1.000
    H3      H    0.00000   0.00000   0.88750   1.000
    H3      H    0.50000   0.50000   0.38750   1.000
    H4      H    0.92682   0.11838   0.40735   1.000
    H4      H    0.61838   0.07318   0.15735   1.000
    H4      H    0.88162   0.42682   0.65735   1.000
    H4      H    0.92682   0.38162   0.84265   1.000
    H4      H    0.57318   0.11838   0.34265   1.000
    H4      H    0.88162   0.07318   0.59265   1.000
    H4      H    0.61838   0.42682   0.09265   1.000
    H4      H    0.07318   0.88162   0.40735   1.000
    H4      H    0.42682   0.61838   0.90735   1.000
    H4      H    0.11838   0.57318   0.65735   1.000
    H4      H    0.38162   0.92682   0.15735   1.000
    H4      H    0.42682   0.88162   0.34265   1.000
    H4      H    0.07318   0.61838   0.84265   1.000
    H4      H    0.38162   0.57318   0.09265   1.000
    H4      H    0.11838   0.92682   0.59265   1.000
