# CIF file generated by openbabel 2.4.1, see http://openbabel.sf.net
data_I
_chemical_name_common '?'
_cell_length_a 41.968
_cell_length_b 41.968
_cell_length_c 17.143
_cell_angle_alpha 90
_cell_angle_beta 90
_cell_angle_gamma 120
_space_group_name_H-M_alt 'P 1'
_space_group_name_Hall 'P 1'
loop_
    _symmetry_equiv_pos_as_xyz
    x,y,z
loop_
    _atom_site_label
    _atom_site_type_symbol
    _atom_site_fract_x
    _atom_site_fract_y
    _atom_site_fract_z
    _atom_site_occupancy
    Zr1     Zr   0.45798   0.00000   0.10266   1.000
    Zr2     Zr   0.53382   0.06764   0.00000   1.000
    Fe1     Fe   0.51200   0.25600   0.50000   1.000
    O3      O    0.51645   0.03289   0.10310   1.000
    O4      O    0.47404   0.03385   0.00000   1.000
    O2      O    0.51760   0.09873   0.07892   1.000
    O1      O    0.46905   0.05532   0.14348   1.000
    N1      N    0.50405   0.25202   0.38240   1.000
    N2      N    0.50293   0.20432   0.50000   1.000
    C8      C    0.50226   0.19348   0.35810   1.000
    C11     C    0.50287   0.18392   0.43540   1.000
    C3      C    0.52665   0.15019   0.19190   1.000
    H3      H    0.54680   0.15640   0.15770   1.000
    C10     C    0.49969   0.23415   0.25360   1.000
    H10     H    0.49810   0.22010   0.20890   1.000
    C2      C    0.49592   0.11662   0.18760   1.000
    C1      C    0.49360   0.08768   0.13140   1.000
    C7      C    0.46701   0.10779   0.23810   1.000
    H7      H    0.44550   0.08420   0.23630   1.000
    C9      C    0.50258   0.22487   0.33340   1.000
    C6      C    0.46991   0.13396   0.29130   1.000
    H6      H    0.44960   0.12830   0.32450   1.000
    C5      C    0.50048   0.16701   0.29750   1.000
    C4      C    0.52848   0.17569   0.24720   1.000
    H4      H    0.54970   0.19950   0.24940   1.000
    C12     C    0.50300   0.15141   0.46070   1.000
    H12     H    0.50310   0.13320   0.42800   1.000
    O6      O    0.40541   0.00000   0.09180   1.000
    O5      O    0.46148   0.00000   0.23090   1.000
    Zr1     Zr   0.00000   0.45798   0.10266   1.000
    Zr1     Zr   0.54203   0.54203   0.10266   1.000
    Zr1     Zr   0.54203   0.00000   0.10266   1.000
    Zr1     Zr   0.00000   0.54203   0.10266   1.000
    Zr1     Zr   0.45798   0.45798   0.10266   1.000
    Zr1     Zr   0.00000   0.45798   0.89734   1.000
    Zr1     Zr   0.45798   0.00000   0.89734   1.000
    Zr1     Zr   0.54203   0.54203   0.89734   1.000
    Zr1     Zr   0.00000   0.54203   0.89734   1.000
    Zr1     Zr   0.54203   0.00000   0.89734   1.000
    Zr1     Zr   0.45798   0.45798   0.89734   1.000
    Zr2     Zr   0.93236   0.46618   0.00000   1.000
    Zr2     Zr   0.53382   0.46618   0.00000   1.000
    Zr2     Zr   0.46618   0.93236   0.00000   1.000
    Zr2     Zr   0.06764   0.53382   0.00000   1.000
    Zr2     Zr   0.46618   0.53382   0.00000   1.000
    Fe1     Fe   0.74400   0.25600   0.50000   1.000
    Fe1     Fe   0.74400   0.48800   0.50000   1.000
    Fe1     Fe   0.48800   0.74400   0.50000   1.000
    Fe1     Fe   0.25600   0.74400   0.50000   1.000
    Fe1     Fe   0.25600   0.51200   0.50000   1.000
    O3      O    0.96711   0.48356   0.10310   1.000
    O3      O    0.51644   0.48355   0.10310   1.000
    O3      O    0.48355   0.96711   0.10310   1.000
    O3      O    0.03289   0.51644   0.10310   1.000
    O3      O    0.48356   0.51645   0.10310   1.000
    O3      O    0.03289   0.51645   0.89690   1.000
    O3      O    0.48356   0.96711   0.89690   1.000
    O3      O    0.48355   0.51644   0.89690   1.000
    O3      O    0.96711   0.48355   0.89690   1.000
    O3      O    0.51644   0.03289   0.89690   1.000
    O3      O    0.51645   0.48356   0.89690   1.000
    O4      O    0.96615   0.44019   0.00000   1.000
    O4      O    0.55981   0.52596   0.00000   1.000
    O4      O    0.52596   0.96615   0.00000   1.000
    O4      O    0.03385   0.55981   0.00000   1.000
    O4      O    0.44019   0.47404   0.00000   1.000
    O4      O    0.03385   0.47404   0.00000   1.000
    O4      O    0.44019   0.96615   0.00000   1.000
    O4      O    0.52596   0.55981   0.00000   1.000
    O4      O    0.96615   0.52596   0.00000   1.000
    O4      O    0.55981   0.03385   0.00000   1.000
    O4      O    0.47404   0.44019   0.00000   1.000
    O2      O    0.90127   0.41887   0.07892   1.000
    O2      O    0.58113   0.48240   0.07892   1.000
    O2      O    0.48240   0.90127   0.07892   1.000
    O2      O    0.09873   0.58113   0.07892   1.000
    O2      O    0.41887   0.51760   0.07892   1.000
    O2      O    0.09873   0.51760   0.92108   1.000
    O2      O    0.41887   0.90127   0.92108   1.000
    O2      O    0.48240   0.58113   0.92108   1.000
    O2      O    0.90127   0.48240   0.92108   1.000
    O2      O    0.58113   0.09873   0.92108   1.000
    O2      O    0.51760   0.41887   0.92108   1.000
    O2      O    0.48240   0.90127   0.92108   1.000
    O2      O    0.09873   0.58113   0.92108   1.000
    O2      O    0.41887   0.51760   0.92108   1.000
    O2      O    0.51760   0.09873   0.92108   1.000
    O2      O    0.90127   0.41887   0.92108   1.000
    O2      O    0.58113   0.48240   0.92108   1.000
    O2      O    0.90127   0.48240   0.07892   1.000
    O2      O    0.58113   0.09873   0.07892   1.000
    O2      O    0.51760   0.41887   0.07892   1.000
    O2      O    0.09873   0.51760   0.07892   1.000
    O2      O    0.41887   0.90127   0.07892   1.000
    O2      O    0.48240   0.58113   0.07892   1.000
    O1      O    0.94468   0.41373   0.14348   1.000
    O1      O    0.58627   0.53095   0.14348   1.000
    O1      O    0.53095   0.94468   0.14348   1.000
    O1      O    0.05532   0.58627   0.14348   1.000
    O1      O    0.41373   0.46905   0.14348   1.000
    O1      O    0.05532   0.46905   0.85652   1.000
    O1      O    0.41373   0.94468   0.85652   1.000
    O1      O    0.53095   0.58627   0.85652   1.000
    O1      O    0.94468   0.53095   0.85652   1.000
    O1      O    0.58627   0.05532   0.85652   1.000
    O1      O    0.46905   0.41373   0.85652   1.000
    O1      O    0.53095   0.94468   0.85652   1.000
    O1      O    0.05532   0.58627   0.85652   1.000
    O1      O    0.41373   0.46905   0.85652   1.000
    O1      O    0.46905   0.05532   0.85652   1.000
    O1      O    0.94468   0.41373   0.85652   1.000
    O1      O    0.58627   0.53095   0.85652   1.000
    O1      O    0.94468   0.53095   0.14348   1.000
    O1      O    0.58627   0.05532   0.14348   1.000
    O1      O    0.46905   0.41373   0.14348   1.000
    O1      O    0.05532   0.46905   0.14348   1.000
    O1      O    0.41373   0.94468   0.14348   1.000
    O1      O    0.53095   0.58627   0.14348   1.000
    N1      N    0.74798   0.25203   0.38240   1.000
    N1      N    0.74797   0.49595   0.38240   1.000
    N1      N    0.49595   0.74798   0.38240   1.000
    N1      N    0.25202   0.74797   0.38240   1.000
    N1      N    0.25203   0.50405   0.38240   1.000
    N1      N    0.25202   0.50405   0.61760   1.000
    N1      N    0.25203   0.74798   0.61760   1.000
    N1      N    0.49595   0.74797   0.61760   1.000
    N1      N    0.74798   0.49595   0.61760   1.000
    N1      N    0.74797   0.25202   0.61760   1.000
    N1      N    0.50405   0.25203   0.61760   1.000
    N2      N    0.79568   0.29861   0.50000   1.000
    N2      N    0.70139   0.49707   0.50000   1.000
    N2      N    0.49707   0.79568   0.50000   1.000
    N2      N    0.20432   0.70139   0.50000   1.000
    N2      N    0.29861   0.50293   0.50000   1.000
    N2      N    0.20432   0.50293   0.50000   1.000
    N2      N    0.29861   0.79568   0.50000   1.000
    N2      N    0.49707   0.70139   0.50000   1.000
    N2      N    0.79568   0.49707   0.50000   1.000
    N2      N    0.70139   0.20432   0.50000   1.000
    N2      N    0.50293   0.29861   0.50000   1.000
    C8      C    0.80652   0.30878   0.35810   1.000
    C8      C    0.69122   0.49774   0.35810   1.000
    C8      C    0.49774   0.80652   0.35810   1.000
    C8      C    0.19348   0.69122   0.35810   1.000
    C8      C    0.30878   0.50226   0.35810   1.000
    C8      C    0.19348   0.50226   0.64190   1.000
    C8      C    0.30878   0.80652   0.64190   1.000
    C8      C    0.49774   0.69122   0.64190   1.000
    C8      C    0.80652   0.49774   0.64190   1.000
    C8      C    0.69122   0.19348   0.64190   1.000
    C8      C    0.50226   0.30878   0.64190   1.000
    C8      C    0.49774   0.80652   0.64190   1.000
    C8      C    0.19348   0.69122   0.64190   1.000
    C8      C    0.30878   0.50226   0.64190   1.000
    C8      C    0.50226   0.19348   0.64190   1.000
    C8      C    0.80652   0.30878   0.64190   1.000
    C8      C    0.69122   0.49774   0.64190   1.000
    C8      C    0.80652   0.49774   0.35810   1.000
    C8      C    0.69122   0.19348   0.35810   1.000
    C8      C    0.50226   0.30878   0.35810   1.000
    C8      C    0.19348   0.50226   0.35810   1.000
    C8      C    0.30878   0.80652   0.35810   1.000
    C8      C    0.49774   0.69122   0.35810   1.000
    C11     C    0.81608   0.31895   0.43540   1.000
    C11     C    0.68105   0.49713   0.43540   1.000
    C11     C    0.49713   0.81608   0.43540   1.000
    C11     C    0.18392   0.68105   0.43540   1.000
    C11     C    0.31895   0.50287   0.43540   1.000
    C11     C    0.18392   0.50287   0.56460   1.000
    C11     C    0.31895   0.81608   0.56460   1.000
    C11     C    0.49713   0.68105   0.56460   1.000
    C11     C    0.81608   0.49713   0.56460   1.000
    C11     C    0.68105   0.18392   0.56460   1.000
    C11     C    0.50287   0.31895   0.56460   1.000
    C11     C    0.49713   0.81608   0.56460   1.000
    C11     C    0.18392   0.68105   0.56460   1.000
    C11     C    0.31895   0.50287   0.56460   1.000
    C11     C    0.50287   0.18392   0.56460   1.000
    C11     C    0.81608   0.31895   0.56460   1.000
    C11     C    0.68105   0.49713   0.56460   1.000
    C11     C    0.81608   0.49713   0.43540   1.000
    C11     C    0.68105   0.18392   0.43540   1.000
    C11     C    0.50287   0.31895   0.43540   1.000
    C11     C    0.18392   0.50287   0.43540   1.000
    C11     C    0.31895   0.81608   0.43540   1.000
    C11     C    0.49713   0.68105   0.43540   1.000
    C3      C    0.84981   0.37646   0.19190   1.000
    C3      C    0.62354   0.47335   0.19190   1.000
    C3      C    0.47335   0.84981   0.19190   1.000
    C3      C    0.15019   0.62354   0.19190   1.000
    C3      C    0.37646   0.52665   0.19190   1.000
    C3      C    0.15019   0.52665   0.80810   1.000
    C3      C    0.37646   0.84981   0.80810   1.000
    C3      C    0.47335   0.62354   0.80810   1.000
    C3      C    0.84981   0.47335   0.80810   1.000
    C3      C    0.62354   0.15019   0.80810   1.000
    C3      C    0.52665   0.37646   0.80810   1.000
    C3      C    0.47335   0.84981   0.80810   1.000
    C3      C    0.15019   0.62354   0.80810   1.000
    C3      C    0.37646   0.52665   0.80810   1.000
    C3      C    0.52665   0.15019   0.80810   1.000
    C3      C    0.84981   0.37646   0.80810   1.000
    C3      C    0.62354   0.47335   0.80810   1.000
    C3      C    0.84981   0.47335   0.19190   1.000
    C3      C    0.62354   0.15019   0.19190   1.000
    C3      C    0.52665   0.37646   0.19190   1.000
    C3      C    0.15019   0.52665   0.19190   1.000
    C3      C    0.37646   0.84981   0.19190   1.000
    C3      C    0.47335   0.62354   0.19190   1.000
    H3      H    0.84360   0.39040   0.15770   1.000
    H3      H    0.60960   0.45320   0.15770   1.000
    H3      H    0.45320   0.84360   0.15770   1.000
    H3      H    0.15640   0.60960   0.15770   1.000
    H3      H    0.39040   0.54680   0.15770   1.000
    H3      H    0.15640   0.54680   0.84230   1.000
    H3      H    0.39040   0.84360   0.84230   1.000
    H3      H    0.45320   0.60960   0.84230   1.000
    H3      H    0.84360   0.45320   0.84230   1.000
    H3      H    0.60960   0.15640   0.84230   1.000
    H3      H    0.54680   0.39040   0.84230   1.000
    H3      H    0.45320   0.84360   0.84230   1.000
    H3      H    0.15640   0.60960   0.84230   1.000
    H3      H    0.39040   0.54680   0.84230   1.000
    H3      H    0.54680   0.15640   0.84230   1.000
    H3      H    0.84360   0.39040   0.84230   1.000
    H3      H    0.60960   0.45320   0.84230   1.000
    H3      H    0.84360   0.45320   0.15770   1.000
    H3      H    0.60960   0.15640   0.15770   1.000
    H3      H    0.54680   0.39040   0.15770   1.000
    H3      H    0.15640   0.54680   0.15770   1.000
    H3      H    0.39040   0.84360   0.15770   1.000
    H3      H    0.45320   0.60960   0.15770   1.000
    C10     C    0.76585   0.26554   0.25360   1.000
    C10     C    0.73446   0.50031   0.25360   1.000
    C10     C    0.50031   0.76585   0.25360   1.000
    C10     C    0.23415   0.73446   0.25360   1.000
    C10     C    0.26554   0.49969   0.25360   1.000
    C10     C    0.23415   0.49969   0.74640   1.000
    C10     C    0.26554   0.76585   0.74640   1.000
    C10     C    0.50031   0.73446   0.74640   1.000
    C10     C    0.76585   0.50031   0.74640   1.000
    C10     C    0.73446   0.23415   0.74640   1.000
    C10     C    0.49969   0.26554   0.74640   1.000
    C10     C    0.23415   0.73446   0.74640   1.000
    C10     C    0.76585   0.26554   0.74640   1.000
    C10     C    0.73446   0.23415   0.25360   1.000
    C10     C    0.26554   0.76585   0.25360   1.000
    H10     H    0.77990   0.27800   0.20890   1.000
    H10     H    0.72200   0.50190   0.20890   1.000
    H10     H    0.50190   0.77990   0.20890   1.000
    H10     H    0.22010   0.72200   0.20890   1.000
    H10     H    0.27800   0.49810   0.20890   1.000
    H10     H    0.22010   0.49810   0.79110   1.000
    H10     H    0.27800   0.77990   0.79110   1.000
    H10     H    0.50190   0.72200   0.79110   1.000
    H10     H    0.77990   0.50190   0.79110   1.000
    H10     H    0.72200   0.22010   0.79110   1.000
    H10     H    0.49810   0.27800   0.79110   1.000
    H10     H    0.50190   0.77990   0.79110   1.000
    H10     H    0.22010   0.72200   0.79110   1.000
    H10     H    0.27800   0.49810   0.79110   1.000
    H10     H    0.49810   0.22010   0.79110   1.000
    H10     H    0.77990   0.27800   0.79110   1.000
    H10     H    0.72200   0.50190   0.79110   1.000
    H10     H    0.77990   0.50190   0.20890   1.000
    H10     H    0.72200   0.22010   0.20890   1.000
    H10     H    0.49810   0.27800   0.20890   1.000
    H10     H    0.22010   0.49810   0.20890   1.000
    H10     H    0.27800   0.77990   0.20890   1.000
    H10     H    0.50190   0.72200   0.20890   1.000
    C2      C    0.88338   0.37930   0.18760   1.000
    C2      C    0.62070   0.50408   0.18760   1.000
    C2      C    0.50408   0.88338   0.18760   1.000
    C2      C    0.11662   0.62070   0.18760   1.000
    C2      C    0.37930   0.49592   0.18760   1.000
    C2      C    0.11662   0.49592   0.81240   1.000
    C2      C    0.37930   0.88338   0.81240   1.000
    C2      C    0.50408   0.62070   0.81240   1.000
    C2      C    0.88338   0.50408   0.81240   1.000
    C2      C    0.62070   0.11662   0.81240   1.000
    C2      C    0.49592   0.37930   0.81240   1.000
    C2      C    0.50408   0.88338   0.81240   1.000
    C2      C    0.11662   0.62070   0.81240   1.000
    C2      C    0.37930   0.49592   0.81240   1.000
    C2      C    0.49592   0.11662   0.81240   1.000
    C2      C    0.88338   0.37930   0.81240   1.000
    C2      C    0.62070   0.50408   0.81240   1.000
    C2      C    0.88338   0.50408   0.18760   1.000
    C2      C    0.62070   0.11662   0.18760   1.000
    C2      C    0.49592   0.37930   0.18760   1.000
    C2      C    0.11662   0.49592   0.18760   1.000
    C2      C    0.37930   0.88338   0.18760   1.000
    C2      C    0.50408   0.62070   0.18760   1.000
    C1      C    0.91232   0.40592   0.13140   1.000
    C1      C    0.59408   0.50640   0.13140   1.000
    C1      C    0.50640   0.91232   0.13140   1.000
    C1      C    0.08768   0.59408   0.13140   1.000
    C1      C    0.40592   0.49360   0.13140   1.000
    C1      C    0.08768   0.49360   0.86860   1.000
    C1      C    0.40592   0.91232   0.86860   1.000
    C1      C    0.50640   0.59408   0.86860   1.000
    C1      C    0.91232   0.50640   0.86860   1.000
    C1      C    0.59408   0.08768   0.86860   1.000
    C1      C    0.49360   0.40592   0.86860   1.000
    C1      C    0.50640   0.91232   0.86860   1.000
    C1      C    0.08768   0.59408   0.86860   1.000
    C1      C    0.40592   0.49360   0.86860   1.000
    C1      C    0.49360   0.08768   0.86860   1.000
    C1      C    0.91232   0.40592   0.86860   1.000
    C1      C    0.59408   0.50640   0.86860   1.000
    C1      C    0.91232   0.50640   0.13140   1.000
    C1      C    0.59408   0.08768   0.13140   1.000
    C1      C    0.49360   0.40592   0.13140   1.000
    C1      C    0.08768   0.49360   0.13140   1.000
    C1      C    0.40592   0.91232   0.13140   1.000
    C1      C    0.50640   0.59408   0.13140   1.000
    C7      C    0.89221   0.35922   0.23810   1.000
    C7      C    0.64078   0.53299   0.23810   1.000
    C7      C    0.53299   0.89221   0.23810   1.000
    C7      C    0.10779   0.64078   0.23810   1.000
    C7      C    0.35922   0.46701   0.23810   1.000
    C7      C    0.10779   0.46701   0.76190   1.000
    C7      C    0.35922   0.89221   0.76190   1.000
    C7      C    0.53299   0.64078   0.76190   1.000
    C7      C    0.89221   0.53299   0.76190   1.000
    C7      C    0.64078   0.10779   0.76190   1.000
    C7      C    0.46701   0.35922   0.76190   1.000
    C7      C    0.53299   0.89221   0.76190   1.000
    C7      C    0.10779   0.64078   0.76190   1.000
    C7      C    0.35922   0.46701   0.76190   1.000
    C7      C    0.46701   0.10779   0.76190   1.000
    C7      C    0.89221   0.35922   0.76190   1.000
    C7      C    0.64078   0.53299   0.76190   1.000
    C7      C    0.89221   0.53299   0.23810   1.000
    C7      C    0.64078   0.10779   0.23810   1.000
    C7      C    0.46701   0.35922   0.23810   1.000
    C7      C    0.10779   0.46701   0.23810   1.000
    C7      C    0.35922   0.89221   0.23810   1.000
    C7      C    0.53299   0.64078   0.23810   1.000
    H7      H    0.91580   0.36130   0.23630   1.000
    H7      H    0.63870   0.55450   0.23630   1.000
    H7      H    0.55450   0.91580   0.23630   1.000
    H7      H    0.08420   0.63870   0.23630   1.000
    H7      H    0.36130   0.44550   0.23630   1.000
    H7      H    0.08420   0.44550   0.76370   1.000
    H7      H    0.36130   0.91580   0.76370   1.000
    H7      H    0.55450   0.63870   0.76370   1.000
    H7      H    0.91580   0.55450   0.76370   1.000
    H7      H    0.63870   0.08420   0.76370   1.000
    H7      H    0.44550   0.36130   0.76370   1.000
    H7      H    0.55450   0.91580   0.76370   1.000
    H7      H    0.08420   0.63870   0.76370   1.000
    H7      H    0.36130   0.44550   0.76370   1.000
    H7      H    0.44550   0.08420   0.76370   1.000
    H7      H    0.91580   0.36130   0.76370   1.000
    H7      H    0.63870   0.55450   0.76370   1.000
    H7      H    0.91580   0.55450   0.23630   1.000
    H7      H    0.63870   0.08420   0.23630   1.000
    H7      H    0.44550   0.36130   0.23630   1.000
    H7      H    0.08420   0.44550   0.23630   1.000
    H7      H    0.36130   0.91580   0.23630   1.000
    H7      H    0.55450   0.63870   0.23630   1.000
    C9      C    0.77513   0.27771   0.33340   1.000
    C9      C    0.72229   0.49742   0.33340   1.000
    C9      C    0.49742   0.77513   0.33340   1.000
    C9      C    0.22487   0.72229   0.33340   1.000
    C9      C    0.27771   0.50258   0.33340   1.000
    C9      C    0.22487   0.50258   0.66660   1.000
    C9      C    0.27771   0.77513   0.66660   1.000
    C9      C    0.49742   0.72229   0.66660   1.000
    C9      C    0.77513   0.49742   0.66660   1.000
    C9      C    0.72229   0.22487   0.66660   1.000
    C9      C    0.50258   0.27771   0.66660   1.000
    C9      C    0.49742   0.77513   0.66660   1.000
    C9      C    0.22487   0.72229   0.66660   1.000
    C9      C    0.27771   0.50258   0.66660   1.000
    C9      C    0.50258   0.22487   0.66660   1.000
    C9      C    0.77513   0.27771   0.66660   1.000
    C9      C    0.72229   0.49742   0.66660   1.000
    C9      C    0.77513   0.49742   0.33340   1.000
    C9      C    0.72229   0.22487   0.33340   1.000
    C9      C    0.50258   0.27771   0.33340   1.000
    C9      C    0.22487   0.50258   0.33340   1.000
    C9      C    0.27771   0.77513   0.33340   1.000
    C9      C    0.49742   0.72229   0.33340   1.000
    C6      C    0.86604   0.33595   0.29130   1.000
    C6      C    0.66405   0.53009   0.29130   1.000
    C6      C    0.53009   0.86604   0.29130   1.000
    C6      C    0.13396   0.66405   0.29130   1.000
    C6      C    0.33595   0.46991   0.29130   1.000
    C6      C    0.13396   0.46991   0.70870   1.000
    C6      C    0.33595   0.86604   0.70870   1.000
    C6      C    0.53009   0.66405   0.70870   1.000
    C6      C    0.86604   0.53009   0.70870   1.000
    C6      C    0.66405   0.13396   0.70870   1.000
    C6      C    0.46991   0.33595   0.70870   1.000
    C6      C    0.53009   0.86604   0.70870   1.000
    C6      C    0.13396   0.66405   0.70870   1.000
    C6      C    0.33595   0.46991   0.70870   1.000
    C6      C    0.46991   0.13396   0.70870   1.000
    C6      C    0.86604   0.33595   0.70870   1.000
    C6      C    0.66405   0.53009   0.70870   1.000
    C6      C    0.86604   0.53009   0.29130   1.000
    C6      C    0.66405   0.13396   0.29130   1.000
    C6      C    0.46991   0.33595   0.29130   1.000
    C6      C    0.13396   0.46991   0.29130   1.000
    C6      C    0.33595   0.86604   0.29130   1.000
    C6      C    0.53009   0.66405   0.29130   1.000
    H6      H    0.87170   0.32130   0.32450   1.000
    H6      H    0.67870   0.55040   0.32450   1.000
    H6      H    0.55040   0.87170   0.32450   1.000
    H6      H    0.12830   0.67870   0.32450   1.000
    H6      H    0.32130   0.44960   0.32450   1.000
    H6      H    0.12830   0.44960   0.67550   1.000
    H6      H    0.32130   0.87170   0.67550   1.000
    H6      H    0.55040   0.67870   0.67550   1.000
    H6      H    0.87170   0.55040   0.67550   1.000
    H6      H    0.67870   0.12830   0.67550   1.000
    H6      H    0.44960   0.32130   0.67550   1.000
    H6      H    0.55040   0.87170   0.67550   1.000
    H6      H    0.12830   0.67870   0.67550   1.000
    H6      H    0.32130   0.44960   0.67550   1.000
    H6      H    0.44960   0.12830   0.67550   1.000
    H6      H    0.87170   0.32130   0.67550   1.000
    H6      H    0.67870   0.55040   0.67550   1.000
    H6      H    0.87170   0.55040   0.32450   1.000
    H6      H    0.67870   0.12830   0.32450   1.000
    H6      H    0.44960   0.32130   0.32450   1.000
    H6      H    0.12830   0.44960   0.32450   1.000
    H6      H    0.32130   0.87170   0.32450   1.000
    H6      H    0.55040   0.67870   0.32450   1.000
    C5      C    0.83299   0.33347   0.29750   1.000
    C5      C    0.66653   0.49952   0.29750   1.000
    C5      C    0.49952   0.83299   0.29750   1.000
    C5      C    0.16701   0.66653   0.29750   1.000
    C5      C    0.33347   0.50048   0.29750   1.000
    C5      C    0.16701   0.50048   0.70250   1.000
    C5      C    0.33347   0.83299   0.70250   1.000
    C5      C    0.49952   0.66653   0.70250   1.000
    C5      C    0.83299   0.49952   0.70250   1.000
    C5      C    0.66653   0.16701   0.70250   1.000
    C5      C    0.50048   0.33347   0.70250   1.000
    C5      C    0.49952   0.83299   0.70250   1.000
    C5      C    0.16701   0.66653   0.70250   1.000
    C5      C    0.33347   0.50048   0.70250   1.000
    C5      C    0.50048   0.16701   0.70250   1.000
    C5      C    0.83299   0.33347   0.70250   1.000
    C5      C    0.66653   0.49952   0.70250   1.000
    C5      C    0.83299   0.49952   0.29750   1.000
    C5      C    0.66653   0.16701   0.29750   1.000
    C5      C    0.50048   0.33347   0.29750   1.000
    C5      C    0.16701   0.50048   0.29750   1.000
    C5      C    0.33347   0.83299   0.29750   1.000
    C5      C    0.49952   0.66653   0.29750   1.000
    C4      C    0.82431   0.35279   0.24720   1.000
    C4      C    0.64721   0.47152   0.24720   1.000
    C4      C    0.47152   0.82431   0.24720   1.000
    C4      C    0.17569   0.64721   0.24720   1.000
    C4      C    0.35279   0.52848   0.24720   1.000
    C4      C    0.17569   0.52848   0.75280   1.000
    C4      C    0.35279   0.82431   0.75280   1.000
    C4      C    0.47152   0.64721   0.75280   1.000
    C4      C    0.82431   0.47152   0.75280   1.000
    C4      C    0.64721   0.17569   0.75280   1.000
    C4      C    0.52848   0.35279   0.75280   1.000
    C4      C    0.47152   0.82431   0.75280   1.000
    C4      C    0.17569   0.64721   0.75280   1.000
    C4      C    0.35279   0.52848   0.75280   1.000
    C4      C    0.52848   0.17569   0.75280   1.000
    C4      C    0.82431   0.35279   0.75280   1.000
    C4      C    0.64721   0.47152   0.75280   1.000
    C4      C    0.82431   0.47152   0.24720   1.000
    C4      C    0.64721   0.17569   0.24720   1.000
    C4      C    0.52848   0.35279   0.24720   1.000
    C4      C    0.17569   0.52848   0.24720   1.000
    C4      C    0.35279   0.82431   0.24720   1.000
    C4      C    0.47152   0.64721   0.24720   1.000
    H4      H    0.80050   0.35020   0.24940   1.000
    H4      H    0.64980   0.45030   0.24940   1.000
    H4      H    0.45030   0.80050   0.24940   1.000
    H4      H    0.19950   0.64980   0.24940   1.000
    H4      H    0.35020   0.54970   0.24940   1.000
    H4      H    0.19950   0.54970   0.75060   1.000
    H4      H    0.35020   0.80050   0.75060   1.000
    H4      H    0.45030   0.64980   0.75060   1.000
    H4      H    0.80050   0.45030   0.75060   1.000
    H4      H    0.64980   0.19950   0.75060   1.000
    H4      H    0.54970   0.35020   0.75060   1.000
    H4      H    0.45030   0.80050   0.75060   1.000
    H4      H    0.19950   0.64980   0.75060   1.000
    H4      H    0.35020   0.54970   0.75060   1.000
    H4      H    0.54970   0.19950   0.75060   1.000
    H4      H    0.80050   0.35020   0.75060   1.000
    H4      H    0.64980   0.45030   0.75060   1.000
    H4      H    0.80050   0.45030   0.24940   1.000
    H4      H    0.64980   0.19950   0.24940   1.000
    H4      H    0.54970   0.35020   0.24940   1.000
    H4      H    0.19950   0.54970   0.24940   1.000
    H4      H    0.35020   0.80050   0.24940   1.000
    H4      H    0.45030   0.64980   0.24940   1.000
    C12     C    0.84859   0.35159   0.46070   1.000
    C12     C    0.64841   0.49700   0.46070   1.000
    C12     C    0.49700   0.84859   0.46070   1.000
    C12     C    0.15141   0.64841   0.46070   1.000
    C12     C    0.35159   0.50300   0.46070   1.000
    C12     C    0.15141   0.50300   0.53930   1.000
    C12     C    0.35159   0.84859   0.53930   1.000
    C12     C    0.49700   0.64841   0.53930   1.000
    C12     C    0.84859   0.49700   0.53930   1.000
    C12     C    0.64841   0.15141   0.53930   1.000
    C12     C    0.50300   0.35159   0.53930   1.000
    C12     C    0.49700   0.84859   0.53930   1.000
    C12     C    0.15141   0.64841   0.53930   1.000
    C12     C    0.35159   0.50300   0.53930   1.000
    C12     C    0.50300   0.15141   0.53930   1.000
    C12     C    0.84859   0.35159   0.53930   1.000
    C12     C    0.64841   0.49700   0.53930   1.000
    C12     C    0.84859   0.49700   0.46070   1.000
    C12     C    0.64841   0.15141   0.46070   1.000
    C12     C    0.50300   0.35159   0.46070   1.000
    C12     C    0.15141   0.50300   0.46070   1.000
    C12     C    0.35159   0.84859   0.46070   1.000
    C12     C    0.49700   0.64841   0.46070   1.000
    H12     H    0.86680   0.36990   0.42800   1.000
    H12     H    0.63010   0.49690   0.42800   1.000
    H12     H    0.49690   0.86680   0.42800   1.000
    H12     H    0.13320   0.63010   0.42800   1.000
    H12     H    0.36990   0.50310   0.42800   1.000
    H12     H    0.13320   0.50310   0.57200   1.000
    H12     H    0.36990   0.86680   0.57200   1.000
    H12     H    0.49690   0.63010   0.57200   1.000
    H12     H    0.86680   0.49690   0.57200   1.000
    H12     H    0.63010   0.13320   0.57200   1.000
    H12     H    0.50310   0.36990   0.57200   1.000
    H12     H    0.49690   0.86680   0.57200   1.000
    H12     H    0.13320   0.63010   0.57200   1.000
    H12     H    0.36990   0.50310   0.57200   1.000
    H12     H    0.50310   0.13320   0.57200   1.000
    H12     H    0.86680   0.36990   0.57200   1.000
    H12     H    0.63010   0.49690   0.57200   1.000
    H12     H    0.86680   0.49690   0.42800   1.000
    H12     H    0.63010   0.13320   0.42800   1.000
    H12     H    0.50310   0.36990   0.42800   1.000
    H12     H    0.13320   0.50310   0.42800   1.000
    H12     H    0.36990   0.86680   0.42800   1.000
    H12     H    0.49690   0.63010   0.42800   1.000
    O6      O    0.00000   0.40541   0.09180   1.000
    O6      O    0.59459   0.59459   0.09180   1.000
    O6      O    0.59459   0.00000   0.09180   1.000
    O6      O    0.00000   0.59459   0.09180   1.000
    O6      O    0.40541   0.40541   0.09180   1.000
    O6      O    0.00000   0.40541   0.90820   1.000
    O6      O    0.40541   0.00000   0.90820   1.000
    O6      O    0.59459   0.59459   0.90820   1.000
    O6      O    0.00000   0.59459   0.90820   1.000
    O6      O    0.59459   0.00000   0.90820   1.000
    O6      O    0.40541   0.40541   0.90820   1.000
    O5      O    0.00000   0.46148   0.23090   1.000
    O5      O    0.53852   0.53852   0.23090   1.000
    O5      O    0.53852   0.00000   0.23090   1.000
    O5      O    0.00000   0.53852   0.23090   1.000
    O5      O    0.46148   0.46148   0.23090   1.000
    O5      O    0.00000   0.46148   0.76910   1.000
    O5      O    0.46148   0.00000   0.76910   1.000
    O5      O    0.53852   0.53852   0.76910   1.000
    O5      O    0.00000   0.53852   0.76910   1.000
    O5      O    0.53852   0.00000   0.76910   1.000
    O5      O    0.46148   0.46148   0.76910   1.000
