data_BIMDEF_clean_PM
_symmetry_space_group_name_H-M   'P 1'
_cell_length_a 8.573200
_cell_length_b 8.573200
_cell_length_c 14.335900
_cell_angle_alpha 87.084400
_cell_angle_beta 87.084400
_cell_angle_gamma 81.742800
_symmetry_Int_Tables_number 1

loop_
_symmetry_equiv_pos_as_xyz
 'x, y, z'

loop_
_atom_site_label
_atom_site_fract_x
_atom_site_fract_y
_atom_site_fract_z
_atom_site_charge
Cu 0.977100 0.654300 0.490000 1.170815
Cu 0.345700 0.022900 0.010000 1.170815
Cu 0.022900 0.345700 0.510000 1.170815
Cu 0.654300 0.977100 0.990000 1.170815
H 0.537700 0.375100 0.417400 0.138864
H 0.524300 0.563900 0.412500 0.139120
H 0.400600 0.236600 0.302500 0.144292
H 0.297900 0.335500 0.223300 0.149757
H 0.364100 0.723900 0.286700 0.146880
H 0.785500 0.301300 0.207300 0.143951
H 0.624900 0.462300 0.082600 0.138864
H 0.436100 0.475700 0.087500 0.139120
H 0.763400 0.599400 0.197500 0.144292
H 0.664500 0.702100 0.276700 0.149757
H 0.276100 0.635900 0.213300 0.146880
H 0.698700 0.214500 0.292700 0.143951
H 0.462300 0.624900 0.582600 0.138864
H 0.475700 0.436100 0.587500 0.139120
H 0.599400 0.763400 0.697500 0.144292
H 0.702100 0.664500 0.776700 0.149757
H 0.635900 0.276100 0.713300 0.146880
H 0.214500 0.698700 0.792700 0.143951
H 0.375100 0.537700 0.917400 0.138864
H 0.563900 0.524300 0.912500 0.139120
H 0.236600 0.400600 0.802500 0.144292
H 0.335500 0.297900 0.723300 0.149757
H 0.723900 0.364100 0.786700 0.146880
H 0.301300 0.785500 0.707300 0.143951
C 0.237700 0.489100 0.385500 0.462443
C 0.381900 0.480700 0.316800 0.076956
C 0.530600 0.469800 0.374500 -0.231562
C 0.679500 0.459500 0.307100 0.081221
C 0.817700 0.457700 0.371900 0.463343
C 0.393700 0.331300 0.259700 -0.167235
C 0.510900 0.762300 0.114500 0.462443
C 0.519300 0.618100 0.183200 0.076956
C 0.530200 0.469400 0.125500 -0.231562
C 0.540500 0.320500 0.192900 0.081221
C 0.542300 0.182300 0.128100 0.463343
C 0.668700 0.606300 0.240300 -0.167235
C 0.762300 0.510900 0.614500 0.462443
C 0.618100 0.519300 0.683200 0.076956
C 0.469400 0.530200 0.625500 -0.231562
C 0.320500 0.540500 0.692900 0.081221
C 0.182300 0.542300 0.628100 0.463343
C 0.606300 0.668700 0.740300 -0.167235
C 0.489100 0.237700 0.885500 0.462443
C 0.480700 0.381900 0.816800 0.076956
C 0.469800 0.530600 0.874500 -0.231562
C 0.459500 0.679500 0.807100 0.081221
C 0.457700 0.817700 0.871900 0.463343
C 0.331300 0.393700 0.759700 -0.167235
C 0.371900 0.628100 0.250000 -0.176938
C 0.690500 0.309500 0.250000 -0.197979
C 0.628100 0.371900 0.750000 -0.176938
C 0.309500 0.690500 0.750000 -0.197979
O 0.168800 0.623600 0.406700 -0.631571
O 0.198900 0.360300 0.418100 -0.637271
O 0.884700 0.327900 0.404900 -0.596410
O 0.848300 0.590900 0.392300 -0.666135
O 0.376400 0.831200 0.093300 -0.631571
O 0.639700 0.801100 0.081900 -0.637271
O 0.672100 0.115300 0.095100 -0.596410
O 0.409100 0.151700 0.107700 -0.666135
O 0.831200 0.376400 0.593300 -0.631571
O 0.801100 0.639700 0.581900 -0.637271
O 0.115300 0.672100 0.595100 -0.596410
O 0.151700 0.409100 0.607700 -0.666135
O 0.623600 0.168800 0.906700 -0.631571
O 0.360300 0.198900 0.918100 -0.637271
O 0.327900 0.884700 0.904900 -0.596410
O 0.590900 0.848300 0.892300 -0.666135
