data_COF-108_PM
_symmetry_space_group_name_H-M   'P 1'
_cell_length_a 28.400999
_cell_length_b 28.400999
_cell_length_c 28.400999
_cell_angle_alpha 90.000000
_cell_angle_beta 90.000000
_cell_angle_gamma 90.000000
_symmetry_Int_Tables_number 1

loop_
_symmetry_equiv_pos_as_xyz
 'x, y, z'

loop_
_atom_site_label
_atom_site_fract_x
_atom_site_fract_y
_atom_site_fract_z
_atom_site_charge
C 0.588840 0.904730 0.035280 0.006831
C 0.553090 0.928610 0.011350 -0.125307
C 0.776910 0.812430 0.151800 0.008490
C 0.707260 0.848930 0.117220 0.189788
H 0.738000 0.788200 0.088390 0.106446
O 0.671430 0.854560 0.084570 -0.514956
H 0.541960 0.914680 0.977750 0.086545
C 0.741010 0.813730 0.116630 -0.102228
H 0.396825 0.020230 0.129609 0.090142
C 0.411160 0.095270 0.035280 0.006831
C 0.446910 0.071390 0.011350 -0.125307
C 0.223090 0.187570 0.151800 0.008490
C 0.292740 0.151070 0.117220 0.189788
H 0.262000 0.211800 0.088390 0.106446
O 0.328570 0.145440 0.084570 -0.514956
H 0.458040 0.085320 0.977750 0.086545
C 0.258990 0.186270 0.116630 -0.102228
H 0.603175 0.979770 0.129609 0.090142
C 0.411160 0.904730 0.964720 0.006831
C 0.446910 0.928610 0.988650 -0.125307
C 0.223090 0.812430 0.848200 0.008490
C 0.292740 0.848930 0.882780 0.189788
H 0.262000 0.788200 0.911610 0.106446
O 0.328570 0.854560 0.915430 -0.514956
H 0.458040 0.914680 0.022250 0.086545
C 0.258990 0.813730 0.883370 -0.102228
H 0.603175 0.020230 0.870391 0.090142
C 0.588840 0.095270 0.964720 0.006831
C 0.553090 0.071390 0.988650 -0.125307
C 0.776910 0.187570 0.848200 0.008490
C 0.707260 0.151070 0.882780 0.189788
H 0.738000 0.211800 0.911610 0.106446
O 0.671430 0.145440 0.915430 -0.514956
H 0.541960 0.085320 0.022250 0.086545
C 0.741010 0.186270 0.883370 -0.102228
H 0.396825 0.979770 0.870391 0.090142
C 0.035280 0.588840 0.904730 0.006831
C 0.011350 0.553090 0.928610 -0.125307
C 0.151800 0.776910 0.812430 0.008490
C 0.117220 0.707260 0.848930 0.189788
H 0.088390 0.738000 0.788200 0.106446
O 0.084570 0.671430 0.854560 -0.514956
H 0.977750 0.541960 0.914680 0.086545
C 0.116630 0.741010 0.813730 -0.102228
H 0.129609 0.396825 0.020230 0.090142
C 0.035280 0.411160 0.095270 0.006831
C 0.011350 0.446910 0.071390 -0.125307
C 0.151800 0.223090 0.187570 0.008490
C 0.117220 0.292740 0.151070 0.189788
H 0.088390 0.262000 0.211800 0.106446
O 0.084570 0.328570 0.145440 -0.514956
H 0.977750 0.458040 0.085320 0.086545
C 0.116630 0.258990 0.186270 -0.102228
H 0.129609 0.603175 0.979770 0.090142
C 0.964720 0.411160 0.904730 0.006831
C 0.988650 0.446910 0.928610 -0.125307
C 0.848200 0.223090 0.812430 0.008490
C 0.882780 0.292740 0.848930 0.189788
H 0.911610 0.262000 0.788200 0.106446
O 0.915430 0.328570 0.854560 -0.514956
H 0.022250 0.458040 0.914680 0.086545
C 0.883370 0.258990 0.813730 -0.102228
H 0.870391 0.603175 0.020230 0.090142
C 0.964720 0.588840 0.095270 0.006831
C 0.988650 0.553090 0.071390 -0.125307
C 0.848200 0.776910 0.187570 0.008490
C 0.882780 0.707260 0.151070 0.189788
H 0.911610 0.738000 0.211800 0.106446
O 0.915430 0.671430 0.145440 -0.514956
H 0.022250 0.541960 0.085320 0.086545
C 0.883370 0.741010 0.186270 -0.102228
H 0.870391 0.396825 0.979770 0.090142
C 0.904730 0.035280 0.588840 0.006831
C 0.928610 0.011350 0.553090 -0.125307
C 0.812430 0.151800 0.776910 0.008490
C 0.848930 0.117220 0.707260 0.189788
H 0.788200 0.088390 0.738000 0.106446
O 0.854560 0.084570 0.671430 -0.514956
H 0.914680 0.977750 0.541960 0.086545
C 0.813730 0.116630 0.741010 -0.102228
H 0.020230 0.129609 0.396825 0.090142
C 0.095270 0.035280 0.411160 0.006831
C 0.071390 0.011350 0.446910 -0.125307
C 0.187570 0.151800 0.223090 0.008490
C 0.151070 0.117220 0.292740 0.189788
H 0.211800 0.088390 0.262000 0.106446
O 0.145440 0.084570 0.328570 -0.514956
H 0.085320 0.977750 0.458040 0.086545
C 0.186270 0.116630 0.258990 -0.102228
H 0.979770 0.129609 0.603175 0.090142
C 0.904730 0.964720 0.411160 0.006831
C 0.928610 0.988650 0.446910 -0.125307
C 0.812430 0.848200 0.223090 0.008490
C 0.848930 0.882780 0.292740 0.189788
H 0.788200 0.911610 0.262000 0.106446
O 0.854560 0.915430 0.328570 -0.514956
H 0.914680 0.022250 0.458040 0.086545
C 0.813730 0.883370 0.258990 -0.102228
H 0.020230 0.870391 0.603175 0.090142
C 0.095270 0.964720 0.588840 0.006831
C 0.071390 0.988650 0.553090 -0.125307
C 0.187570 0.848200 0.776910 0.008490
C 0.151070 0.882780 0.707260 0.189788
H 0.211800 0.911610 0.738000 0.106446
O 0.145440 0.915430 0.671430 -0.514956
H 0.085320 0.022250 0.541960 0.086545
C 0.186270 0.883370 0.741010 -0.102228
H 0.979770 0.870391 0.396825 0.090142
C 0.904730 0.588840 0.035280 0.006831
C 0.928610 0.553090 0.011350 -0.125307
C 0.812430 0.776910 0.151800 0.008490
C 0.848930 0.707260 0.117220 0.189788
H 0.788200 0.738000 0.088390 0.106446
O 0.854560 0.671430 0.084570 -0.514956
H 0.914680 0.541960 0.977750 0.086545
C 0.813730 0.741010 0.116630 -0.102228
H 0.020230 0.396825 0.129609 0.090142
C 0.095270 0.411160 0.035280 0.006831
C 0.071390 0.446910 0.011350 -0.125307
C 0.187570 0.223090 0.151800 0.008490
C 0.151070 0.292740 0.117220 0.189788
H 0.211800 0.262000 0.088390 0.106446
O 0.145440 0.328570 0.084570 -0.514956
H 0.085320 0.458040 0.977750 0.086545
C 0.186270 0.258990 0.116630 -0.102228
H 0.979770 0.603175 0.129609 0.090142
C 0.904730 0.411160 0.964720 0.006831
C 0.928610 0.446910 0.988650 -0.125307
C 0.812430 0.223090 0.848200 0.008490
C 0.848930 0.292740 0.882780 0.189788
H 0.788200 0.262000 0.911610 0.106446
O 0.854560 0.328570 0.915430 -0.514956
H 0.914680 0.458040 0.022250 0.086545
C 0.813730 0.258990 0.883370 -0.102228
H 0.020230 0.603175 0.870391 0.090142
C 0.095270 0.588840 0.964720 0.006831
C 0.071390 0.553090 0.988650 -0.125307
C 0.187570 0.776910 0.848200 0.008490
C 0.151070 0.707260 0.882780 0.189788
H 0.211800 0.738000 0.911610 0.106446
O 0.145440 0.671430 0.915430 -0.514956
H 0.085320 0.541960 0.022250 0.086545
C 0.186270 0.741010 0.883370 -0.102228
H 0.979770 0.396825 0.870391 0.090142
C 0.588840 0.035280 0.904730 0.006831
C 0.553090 0.011350 0.928610 -0.125307
C 0.776910 0.151800 0.812430 0.008490
C 0.707260 0.117220 0.848930 0.189788
H 0.738000 0.088390 0.788200 0.106446
O 0.671430 0.084570 0.854560 -0.514956
H 0.541960 0.977750 0.914680 0.086545
C 0.741010 0.116630 0.813730 -0.102228
H 0.396825 0.129609 0.020230 0.090142
C 0.411160 0.035280 0.095270 0.006831
C 0.446910 0.011350 0.071390 -0.125307
C 0.223090 0.151800 0.187570 0.008490
C 0.292740 0.117220 0.151070 0.189788
H 0.262000 0.088390 0.211800 0.106446
O 0.328570 0.084570 0.145440 -0.514956
H 0.458040 0.977750 0.085320 0.086545
C 0.258990 0.116630 0.186270 -0.102228
H 0.603175 0.129609 0.979770 0.090142
C 0.411160 0.964720 0.904730 0.006831
C 0.446910 0.988650 0.928610 -0.125307
C 0.223090 0.848200 0.812430 0.008490
C 0.292740 0.882780 0.848930 0.189788
H 0.262000 0.911610 0.788200 0.106446
O 0.328570 0.915430 0.854560 -0.514956
H 0.458040 0.022250 0.914680 0.086545
C 0.258990 0.883370 0.813730 -0.102228
H 0.603175 0.870391 0.020230 0.090142
C 0.588840 0.964720 0.095270 0.006831
C 0.553090 0.988650 0.071390 -0.125307
C 0.776910 0.848200 0.187570 0.008490
C 0.707260 0.882780 0.151070 0.189788
H 0.738000 0.911610 0.211800 0.106446
O 0.671430 0.915430 0.145440 -0.514956
H 0.541960 0.022250 0.085320 0.086545
C 0.741010 0.883370 0.186270 -0.102228
H 0.396825 0.870391 0.979770 0.090142
C 0.035280 0.904730 0.588840 0.006831
C 0.011350 0.928610 0.553090 -0.125307
C 0.151800 0.812430 0.776910 0.008490
C 0.117220 0.848930 0.707260 0.189788
H 0.088390 0.788200 0.738000 0.106446
O 0.084570 0.854560 0.671430 -0.514956
H 0.977750 0.914680 0.541960 0.086545
C 0.116630 0.813730 0.741010 -0.102228
H 0.129609 0.020230 0.396825 0.090142
C 0.035280 0.095270 0.411160 0.006831
C 0.011350 0.071390 0.446910 -0.125307
C 0.151800 0.187570 0.223090 0.008490
C 0.117220 0.151070 0.292740 0.189788
H 0.088390 0.211800 0.262000 0.106446
O 0.084570 0.145440 0.328570 -0.514956
H 0.977750 0.085320 0.458040 0.086545
C 0.116630 0.186270 0.258990 -0.102228
H 0.129609 0.979770 0.603175 0.090142
C 0.964720 0.904730 0.411160 0.006831
C 0.988650 0.928610 0.446910 -0.125307
C 0.848200 0.812430 0.223090 0.008490
C 0.882780 0.848930 0.292740 0.189788
H 0.911610 0.788200 0.262000 0.106446
O 0.915430 0.854560 0.328570 -0.514956
H 0.022250 0.914680 0.458040 0.086545
C 0.883370 0.813730 0.258990 -0.102228
H 0.870391 0.020230 0.603175 0.090142
C 0.964720 0.095270 0.588840 0.006831
C 0.988650 0.071390 0.553090 -0.125307
C 0.848200 0.187570 0.776910 0.008490
C 0.882780 0.151070 0.707260 0.189788
H 0.911610 0.211800 0.738000 0.106446
O 0.915430 0.145440 0.671430 -0.514956
H 0.022250 0.085320 0.541960 0.086545
C 0.883370 0.186270 0.741010 -0.102228
H 0.870391 0.979770 0.396825 0.090142
B 0.648860 0.897100 0.102900 0.564863
C 0.607020 0.922640 0.077360 -0.093692
C 0.532950 0.970380 0.029620 0.044517
B 0.351140 0.102900 0.102900 0.564863
C 0.392980 0.077360 0.077360 -0.093692
C 0.467050 0.029620 0.029620 0.044517
B 0.351140 0.897100 0.897100 0.564863
C 0.392980 0.922640 0.922640 -0.093692
C 0.467050 0.970380 0.970380 0.044517
B 0.648860 0.102900 0.897100 0.564863
C 0.607020 0.077360 0.922640 -0.093692
C 0.532950 0.029620 0.970380 0.044517
B 0.102900 0.648860 0.897100 0.564863
C 0.077360 0.607020 0.922640 -0.093692
C 0.029620 0.532950 0.970380 0.044517
B 0.102900 0.351140 0.102900 0.564863
C 0.077360 0.392980 0.077360 -0.093692
C 0.029620 0.467050 0.029620 0.044517
B 0.897100 0.351140 0.897100 0.564863
C 0.922640 0.392980 0.922640 -0.093692
C 0.970380 0.467050 0.970380 0.044517
B 0.897100 0.648860 0.102900 0.564863
C 0.922640 0.607020 0.077360 -0.093692
C 0.970380 0.532950 0.029620 0.044517
B 0.897100 0.102900 0.648860 0.564863
C 0.922640 0.077360 0.607020 -0.093692
C 0.970380 0.029620 0.532950 0.044517
B 0.102900 0.102900 0.351140 0.564863
C 0.077360 0.077360 0.392980 -0.093692
C 0.029620 0.029620 0.467050 0.044517
B 0.897100 0.897100 0.351140 0.564863
C 0.922640 0.922640 0.392980 -0.093692
C 0.970380 0.970380 0.467050 0.044517
B 0.102900 0.897100 0.648860 0.564863
C 0.077360 0.922640 0.607020 -0.093692
C 0.029620 0.970380 0.532950 0.044517
C 0.500000 -0.000000 0.000000 -0.028751
C 0.000000 0.500000 0.000000 -0.028751
C 0.000000 0.000000 0.500000 -0.028751
