data_COF-103_PM
_symmetry_space_group_name_H-M   'P 1'
_cell_length_a 28.247700
_cell_length_b 28.247700
_cell_length_c 28.247700
_cell_angle_alpha 90.000000
_cell_angle_beta 90.000000
_cell_angle_gamma 90.000000
_symmetry_Int_Tables_number 1

loop_
_symmetry_equiv_pos_as_xyz
 'x, y, z'

loop_
_atom_site_label
_atom_site_fract_x
_atom_site_fract_y
_atom_site_fract_z
_atom_site_charge
C 0.340700 0.079660 0.200010 0.031141
C 0.335910 0.051390 0.240070 -0.398007
C 0.300210 0.061250 0.272530 0.031313
C 0.269890 0.099210 0.265330 -0.092550
C 0.274960 0.127880 0.225490 0.012042
C 0.310620 0.117830 0.192900 -0.092748
H 0.367480 0.072420 0.174070 0.055840
H 0.295750 0.039490 0.303450 0.052364
H 0.242630 0.106070 0.291000 0.097334
H 0.315170 0.139200 0.161710 0.097619
B 0.241020 0.170520 0.217310 0.625814
O 0.201730 0.177380 0.249790 -0.678401
C 0.840700 0.579660 0.700010 0.031141
C 0.835910 0.551390 0.740070 -0.398007
C 0.800210 0.561250 0.772530 0.031313
C 0.769890 0.599210 0.765330 -0.092550
C 0.774960 0.627880 0.725490 0.012042
C 0.810620 0.617830 0.692900 -0.092748
H 0.867480 0.572420 0.674070 0.055840
H 0.795750 0.539490 0.803450 0.052364
H 0.742630 0.606070 0.791000 0.097334
H 0.815170 0.639200 0.661710 0.097619
B 0.741020 0.670520 0.717310 0.625814
O 0.701730 0.677380 0.749790 -0.678401
C 0.159300 0.920340 0.700010 0.031141
C 0.164090 0.948610 0.740070 -0.398007
C 0.199790 0.938750 0.772530 0.031313
C 0.230110 0.900790 0.765330 -0.092550
C 0.225040 0.872120 0.725490 0.012042
C 0.189380 0.882170 0.692900 -0.092748
H 0.132520 0.927580 0.674070 0.055840
H 0.204250 0.960510 0.803450 0.052364
H 0.257370 0.893930 0.791000 0.097334
H 0.184830 0.860800 0.661710 0.097619
B 0.258980 0.829480 0.717310 0.625814
O 0.298270 0.822620 0.749790 -0.678401
C 0.659300 0.420340 0.200010 0.031141
C 0.664090 0.448610 0.240070 -0.398007
C 0.699790 0.438750 0.272530 0.031313
C 0.730110 0.400790 0.265330 -0.092550
C 0.725040 0.372120 0.225490 0.012042
C 0.689380 0.382170 0.192900 -0.092748
H 0.632520 0.427580 0.174070 0.055840
H 0.704250 0.460510 0.303450 0.052364
H 0.757370 0.393930 0.291000 0.097334
H 0.684830 0.360800 0.161710 0.097619
B 0.758980 0.329480 0.217310 0.625814
O 0.798270 0.322620 0.249790 -0.678401
C 0.659300 0.579660 0.299990 0.031141
C 0.664090 0.551390 0.259930 -0.398007
C 0.699790 0.561250 0.227470 0.031313
C 0.730110 0.599210 0.234670 -0.092550
C 0.725040 0.627880 0.274510 0.012042
C 0.689380 0.617830 0.307100 -0.092748
H 0.632520 0.572420 0.325930 0.055840
H 0.704250 0.539490 0.196550 0.052364
H 0.757370 0.606070 0.209000 0.097334
H 0.684830 0.639200 0.338290 0.097619
B 0.758980 0.670520 0.282690 0.625814
O 0.798270 0.677380 0.250210 -0.678401
C 0.159300 0.079660 0.799990 0.031141
C 0.164090 0.051390 0.759930 -0.398007
C 0.199790 0.061250 0.727470 0.031313
C 0.230110 0.099210 0.734670 -0.092550
C 0.225040 0.127880 0.774510 0.012042
C 0.189380 0.117830 0.807100 -0.092748
H 0.132520 0.072420 0.825930 0.055840
H 0.204250 0.039490 0.696550 0.052364
H 0.257370 0.106070 0.709000 0.097334
H 0.184830 0.139200 0.838290 0.097619
B 0.258980 0.170520 0.782690 0.625814
O 0.298270 0.177380 0.750210 -0.678401
C 0.840700 0.420340 0.799990 0.031141
C 0.835910 0.448610 0.759930 -0.398007
C 0.800210 0.438750 0.727470 0.031313
C 0.769890 0.400790 0.734670 -0.092550
C 0.774960 0.372120 0.774510 0.012042
C 0.810620 0.382170 0.807100 -0.092748
H 0.867480 0.427580 0.825930 0.055840
H 0.795750 0.460510 0.696550 0.052364
H 0.742630 0.393930 0.709000 0.097334
H 0.815170 0.360800 0.838290 0.097619
B 0.741020 0.329480 0.782690 0.625814
O 0.701730 0.322620 0.750210 -0.678401
C 0.340700 0.920340 0.299990 0.031141
C 0.335910 0.948610 0.259930 -0.398007
C 0.300210 0.938750 0.227470 0.031313
C 0.269890 0.900790 0.234670 -0.092550
C 0.274960 0.872120 0.274510 0.012042
C 0.310620 0.882170 0.307100 -0.092748
H 0.367480 0.927580 0.325930 0.055840
H 0.295750 0.960510 0.196550 0.052364
H 0.242630 0.893930 0.209000 0.097334
H 0.315170 0.860800 0.338290 0.097619
B 0.241020 0.829480 0.282690 0.625814
O 0.201730 0.822620 0.250210 -0.678401
C 0.200010 0.340700 0.079660 0.031141
C 0.240070 0.335910 0.051390 -0.398007
C 0.272530 0.300210 0.061250 0.031313
C 0.265330 0.269890 0.099210 -0.092550
C 0.225490 0.274960 0.127880 0.012042
C 0.192900 0.310620 0.117830 -0.092748
H 0.174070 0.367480 0.072420 0.055840
H 0.303450 0.295750 0.039490 0.052364
H 0.291000 0.242630 0.106070 0.097334
H 0.161710 0.315170 0.139200 0.097619
B 0.217310 0.241020 0.170520 0.625814
O 0.249790 0.201730 0.177380 -0.678401
C 0.700010 0.840700 0.579660 0.031141
C 0.740070 0.835910 0.551390 -0.398007
C 0.772530 0.800210 0.561250 0.031313
C 0.765330 0.769890 0.599210 -0.092550
C 0.725490 0.774960 0.627880 0.012042
C 0.692900 0.810620 0.617830 -0.092748
H 0.674070 0.867480 0.572420 0.055840
H 0.803450 0.795750 0.539490 0.052364
H 0.791000 0.742630 0.606070 0.097334
H 0.661710 0.815170 0.639200 0.097619
B 0.717310 0.741020 0.670520 0.625814
O 0.749790 0.701730 0.677380 -0.678401
C 0.700010 0.159300 0.920340 0.031141
C 0.740070 0.164090 0.948610 -0.398007
C 0.772530 0.199790 0.938750 0.031313
C 0.765330 0.230110 0.900790 -0.092550
C 0.725490 0.225040 0.872120 0.012042
C 0.692900 0.189380 0.882170 -0.092748
H 0.674070 0.132520 0.927580 0.055840
H 0.803450 0.204250 0.960510 0.052364
H 0.791000 0.257370 0.893930 0.097334
H 0.661710 0.184830 0.860800 0.097619
B 0.717310 0.258980 0.829480 0.625814
O 0.749790 0.298270 0.822620 -0.678401
C 0.200010 0.659300 0.420340 0.031141
C 0.240070 0.664090 0.448610 -0.398007
C 0.272530 0.699790 0.438750 0.031313
C 0.265330 0.730110 0.400790 -0.092550
C 0.225490 0.725040 0.372120 0.012042
C 0.192900 0.689380 0.382170 -0.092748
H 0.174070 0.632520 0.427580 0.055840
H 0.303450 0.704250 0.460510 0.052364
H 0.291000 0.757370 0.393930 0.097334
H 0.161710 0.684830 0.360800 0.097619
B 0.217310 0.758980 0.329480 0.625814
O 0.249790 0.798270 0.322620 -0.678401
C 0.299990 0.659300 0.579660 0.031141
C 0.259930 0.664090 0.551390 -0.398007
C 0.227470 0.699790 0.561250 0.031313
C 0.234670 0.730110 0.599210 -0.092550
C 0.274510 0.725040 0.627880 0.012042
C 0.307100 0.689380 0.617830 -0.092748
H 0.325930 0.632520 0.572420 0.055840
H 0.196550 0.704250 0.539490 0.052364
H 0.209000 0.757370 0.606070 0.097334
H 0.338290 0.684830 0.639200 0.097619
B 0.282690 0.758980 0.670520 0.625814
O 0.250210 0.798270 0.677380 -0.678401
C 0.799990 0.159300 0.079660 0.031141
C 0.759930 0.164090 0.051390 -0.398007
C 0.727470 0.199790 0.061250 0.031313
C 0.734670 0.230110 0.099210 -0.092550
C 0.774510 0.225040 0.127880 0.012042
C 0.807100 0.189380 0.117830 -0.092748
H 0.825930 0.132520 0.072420 0.055840
H 0.696550 0.204250 0.039490 0.052364
H 0.709000 0.257370 0.106070 0.097334
H 0.838290 0.184830 0.139200 0.097619
B 0.782690 0.258980 0.170520 0.625814
O 0.750210 0.298270 0.177380 -0.678401
C 0.799990 0.840700 0.420340 0.031141
C 0.759930 0.835910 0.448610 -0.398007
C 0.727470 0.800210 0.438750 0.031313
C 0.734670 0.769890 0.400790 -0.092550
C 0.774510 0.774960 0.372120 0.012042
C 0.807100 0.810620 0.382170 -0.092748
H 0.825930 0.867480 0.427580 0.055840
H 0.696550 0.795750 0.460510 0.052364
H 0.709000 0.742630 0.393930 0.097334
H 0.838290 0.815170 0.360800 0.097619
B 0.782690 0.741020 0.329480 0.625814
O 0.750210 0.701730 0.322620 -0.678401
C 0.299990 0.340700 0.920340 0.031141
C 0.259930 0.335910 0.948610 -0.398007
C 0.227470 0.300210 0.938750 0.031313
C 0.234670 0.269890 0.900790 -0.092550
C 0.274510 0.274960 0.872120 0.012042
C 0.307100 0.310620 0.882170 -0.092748
H 0.325930 0.367480 0.927580 0.055840
H 0.196550 0.295750 0.960510 0.052364
H 0.209000 0.242630 0.893930 0.097334
H 0.338290 0.315170 0.860800 0.097619
B 0.282690 0.241020 0.829480 0.625814
O 0.250210 0.201730 0.822620 -0.678401
C 0.079660 0.200010 0.340700 0.031141
C 0.051390 0.240070 0.335910 -0.398007
C 0.061250 0.272530 0.300210 0.031313
C 0.099210 0.265330 0.269890 -0.092550
C 0.127880 0.225490 0.274960 0.012042
C 0.117830 0.192900 0.310620 -0.092748
H 0.072420 0.174070 0.367480 0.055840
H 0.039490 0.303450 0.295750 0.052364
H 0.106070 0.291000 0.242630 0.097334
H 0.139200 0.161710 0.315170 0.097619
B 0.170520 0.217310 0.241020 0.625814
O 0.177380 0.249790 0.201730 -0.678401
C 0.579660 0.700010 0.840700 0.031141
C 0.551390 0.740070 0.835910 -0.398007
C 0.561250 0.772530 0.800210 0.031313
C 0.599210 0.765330 0.769890 -0.092550
C 0.627880 0.725490 0.774960 0.012042
C 0.617830 0.692900 0.810620 -0.092748
H 0.572420 0.674070 0.867480 0.055840
H 0.539490 0.803450 0.795750 0.052364
H 0.606070 0.791000 0.742630 0.097334
H 0.639200 0.661710 0.815170 0.097619
B 0.670520 0.717310 0.741020 0.625814
O 0.677380 0.749790 0.701730 -0.678401
C 0.920340 0.700010 0.159300 0.031141
C 0.948610 0.740070 0.164090 -0.398007
C 0.938750 0.772530 0.199790 0.031313
C 0.900790 0.765330 0.230110 -0.092550
C 0.872120 0.725490 0.225040 0.012042
C 0.882170 0.692900 0.189380 -0.092748
H 0.927580 0.674070 0.132520 0.055840
H 0.960510 0.803450 0.204250 0.052364
H 0.893930 0.791000 0.257370 0.097334
H 0.860800 0.661710 0.184830 0.097619
B 0.829480 0.717310 0.258980 0.625814
O 0.822620 0.749790 0.298270 -0.678401
C 0.420340 0.200010 0.659300 0.031141
C 0.448610 0.240070 0.664090 -0.398007
C 0.438750 0.272530 0.699790 0.031313
C 0.400790 0.265330 0.730110 -0.092550
C 0.372120 0.225490 0.725040 0.012042
C 0.382170 0.192900 0.689380 -0.092748
H 0.427580 0.174070 0.632520 0.055840
H 0.460510 0.303450 0.704250 0.052364
H 0.393930 0.291000 0.757370 0.097334
H 0.360800 0.161710 0.684830 0.097619
B 0.329480 0.217310 0.758980 0.625814
O 0.322620 0.249790 0.798270 -0.678401
C 0.579660 0.299990 0.659300 0.031141
C 0.551390 0.259930 0.664090 -0.398007
C 0.561250 0.227470 0.699790 0.031313
C 0.599210 0.234670 0.730110 -0.092550
C 0.627880 0.274510 0.725040 0.012042
C 0.617830 0.307100 0.689380 -0.092748
H 0.572420 0.325930 0.632520 0.055840
H 0.539490 0.196550 0.704250 0.052364
H 0.606070 0.209000 0.757370 0.097334
H 0.639200 0.338290 0.684830 0.097619
B 0.670520 0.282690 0.758980 0.625814
O 0.677380 0.250210 0.798270 -0.678401
C 0.079660 0.799990 0.159300 0.031141
C 0.051390 0.759930 0.164090 -0.398007
C 0.061250 0.727470 0.199790 0.031313
C 0.099210 0.734670 0.230110 -0.092550
C 0.127880 0.774510 0.225040 0.012042
C 0.117830 0.807100 0.189380 -0.092748
H 0.072420 0.825930 0.132520 0.055840
H 0.039490 0.696550 0.204250 0.052364
H 0.106070 0.709000 0.257370 0.097334
H 0.139200 0.838290 0.184830 0.097619
B 0.170520 0.782690 0.258980 0.625814
O 0.177380 0.750210 0.298270 -0.678401
C 0.420340 0.799990 0.840700 0.031141
C 0.448610 0.759930 0.835910 -0.398007
C 0.438750 0.727470 0.800210 0.031313
C 0.400790 0.734670 0.769890 -0.092550
C 0.372120 0.774510 0.774960 0.012042
C 0.382170 0.807100 0.810620 -0.092748
H 0.427580 0.825930 0.867480 0.055840
H 0.460510 0.696550 0.795750 0.052364
H 0.393930 0.709000 0.742630 0.097334
H 0.360800 0.838290 0.815170 0.097619
B 0.329480 0.782690 0.741020 0.625814
O 0.322620 0.750210 0.701730 -0.678401
C 0.920340 0.299990 0.340700 0.031141
C 0.948610 0.259930 0.335910 -0.398007
C 0.938750 0.227470 0.300210 0.031313
C 0.900790 0.234670 0.269890 -0.092550
C 0.872120 0.274510 0.274960 0.012042
C 0.882170 0.307100 0.310620 -0.092748
H 0.927580 0.325930 0.367480 0.055840
H 0.960510 0.196550 0.295750 0.052364
H 0.893930 0.209000 0.242630 0.097334
H 0.860800 0.338290 0.315170 0.097619
B 0.829480 0.282690 0.241020 0.625814
O 0.822620 0.250210 0.201730 -0.678401
C 0.329660 0.590700 0.450010 0.031141
C 0.301390 0.585910 0.490070 -0.398007
C 0.311250 0.550210 0.522530 0.031313
C 0.349210 0.519890 0.515330 -0.092550
C 0.377880 0.524960 0.475490 0.012042
C 0.367830 0.560620 0.442900 -0.092748
H 0.322420 0.617480 0.424070 0.055840
H 0.289490 0.545750 0.553450 0.052364
H 0.356070 0.492630 0.541000 0.097334
H 0.389200 0.565170 0.411710 0.097619
B 0.420520 0.491020 0.467310 0.625814
O 0.427380 0.451730 0.499790 -0.678401
C 0.829660 0.090700 0.950010 0.031141
C 0.801390 0.085910 0.990070 -0.398007
C 0.811250 0.050210 0.022530 0.031313
C 0.849210 0.019890 0.015330 -0.092550
C 0.877880 0.024960 0.975490 0.012042
C 0.867830 0.060620 0.942900 -0.092748
H 0.822420 0.117480 0.924070 0.055840
H 0.789490 0.045750 0.053450 0.052364
H 0.856070 0.992630 0.041000 0.097334
H 0.889200 0.065170 0.911710 0.097619
B 0.920520 0.991020 0.967310 0.625814
O 0.927380 0.951730 0.999790 -0.678401
C 0.170340 0.409300 0.950010 0.031141
C 0.198610 0.414090 0.990070 -0.398007
C 0.188750 0.449790 0.022530 0.031313
C 0.150790 0.480110 0.015330 -0.092550
C 0.122120 0.475040 0.975490 0.012042
C 0.132170 0.439380 0.942900 -0.092748
H 0.177580 0.382520 0.924070 0.055840
H 0.210510 0.454250 0.053450 0.052364
H 0.143930 0.507370 0.041000 0.097334
H 0.110800 0.434830 0.911710 0.097619
B 0.079480 0.508980 0.967310 0.625814
O 0.072620 0.548270 0.999790 -0.678401
C 0.670340 0.909300 0.450010 0.031141
C 0.698610 0.914090 0.490070 -0.398007
C 0.688750 0.949790 0.522530 0.031313
C 0.650790 0.980110 0.515330 -0.092550
C 0.622120 0.975040 0.475490 0.012042
C 0.632170 0.939380 0.442900 -0.092748
H 0.677580 0.882520 0.424070 0.055840
H 0.710510 0.954250 0.553450 0.052364
H 0.643930 0.007370 0.541000 0.097334
H 0.610800 0.934830 0.411710 0.097619
B 0.579480 0.008980 0.467310 0.625814
O 0.572620 0.048270 0.499790 -0.678401
C 0.829660 0.909300 0.549990 0.031141
C 0.801390 0.914090 0.509930 -0.398007
C 0.811250 0.949790 0.477470 0.031313
C 0.849210 0.980110 0.484670 -0.092550
C 0.877880 0.975040 0.524510 0.012042
C 0.867830 0.939380 0.557100 -0.092748
H 0.822420 0.882520 0.575930 0.055840
H 0.789490 0.954250 0.446550 0.052364
H 0.856070 0.007370 0.459000 0.097334
H 0.889200 0.934830 0.588290 0.097619
B 0.920520 0.008980 0.532690 0.625814
O 0.927380 0.048270 0.500210 -0.678401
C 0.329660 0.409300 0.049990 0.031141
C 0.301390 0.414090 0.009930 -0.398007
C 0.311250 0.449790 0.977470 0.031313
C 0.349210 0.480110 0.984670 -0.092550
C 0.377880 0.475040 0.024510 0.012042
C 0.367830 0.439380 0.057100 -0.092748
H 0.322420 0.382520 0.075930 0.055840
H 0.289490 0.454250 0.946550 0.052364
H 0.356070 0.507370 0.959000 0.097334
H 0.389200 0.434830 0.088290 0.097619
B 0.420520 0.508980 0.032690 0.625814
O 0.427380 0.548270 0.000210 -0.678401
C 0.670340 0.090700 0.049990 0.031141
C 0.698610 0.085910 0.009930 -0.398007
C 0.688750 0.050210 0.977470 0.031313
C 0.650790 0.019890 0.984670 -0.092550
C 0.622120 0.024960 0.024510 0.012042
C 0.632170 0.060620 0.057100 -0.092748
H 0.677580 0.117480 0.075930 0.055840
H 0.710510 0.045750 0.946550 0.052364
H 0.643930 0.992630 0.959000 0.097334
H 0.610800 0.065170 0.088290 0.097619
B 0.579480 0.991020 0.032690 0.625814
O 0.572620 0.951730 0.000210 -0.678401
C 0.170340 0.590700 0.549990 0.031141
C 0.198610 0.585910 0.509930 -0.398007
C 0.188750 0.550210 0.477470 0.031313
C 0.150790 0.519890 0.484670 -0.092550
C 0.122120 0.524960 0.524510 0.012042
C 0.132170 0.560620 0.557100 -0.092748
H 0.177580 0.617480 0.575930 0.055840
H 0.210510 0.545750 0.446550 0.052364
H 0.143930 0.492630 0.459000 0.097334
H 0.110800 0.565170 0.588290 0.097619
B 0.079480 0.491020 0.532690 0.625814
O 0.072620 0.451730 0.500210 -0.678401
C 0.590700 0.450010 0.329660 0.031141
C 0.585910 0.490070 0.301390 -0.398007
C 0.550210 0.522530 0.311250 0.031313
C 0.519890 0.515330 0.349210 -0.092550
C 0.524960 0.475490 0.377880 0.012042
C 0.560620 0.442900 0.367830 -0.092748
H 0.617480 0.424070 0.322420 0.055840
H 0.545750 0.553450 0.289490 0.052364
H 0.492630 0.541000 0.356070 0.097334
H 0.565170 0.411710 0.389200 0.097619
B 0.491020 0.467310 0.420520 0.625814
O 0.451730 0.499790 0.427380 -0.678401
C 0.090700 0.950010 0.829660 0.031141
C 0.085910 0.990070 0.801390 -0.398007
C 0.050210 0.022530 0.811250 0.031313
C 0.019890 0.015330 0.849210 -0.092550
C 0.024960 0.975490 0.877880 0.012042
C 0.060620 0.942900 0.867830 -0.092748
H 0.117480 0.924070 0.822420 0.055840
H 0.045750 0.053450 0.789490 0.052364
H 0.992630 0.041000 0.856070 0.097334
H 0.065170 0.911710 0.889200 0.097619
B 0.991020 0.967310 0.920520 0.625814
O 0.951730 0.999790 0.927380 -0.678401
C 0.409300 0.950010 0.170340 0.031141
C 0.414090 0.990070 0.198610 -0.398007
C 0.449790 0.022530 0.188750 0.031313
C 0.480110 0.015330 0.150790 -0.092550
C 0.475040 0.975490 0.122120 0.012042
C 0.439380 0.942900 0.132170 -0.092748
H 0.382520 0.924070 0.177580 0.055840
H 0.454250 0.053450 0.210510 0.052364
H 0.507370 0.041000 0.143930 0.097334
H 0.434830 0.911710 0.110800 0.097619
B 0.508980 0.967310 0.079480 0.625814
O 0.548270 0.999790 0.072620 -0.678401
C 0.909300 0.450010 0.670340 0.031141
C 0.914090 0.490070 0.698610 -0.398007
C 0.949790 0.522530 0.688750 0.031313
C 0.980110 0.515330 0.650790 -0.092550
C 0.975040 0.475490 0.622120 0.012042
C 0.939380 0.442900 0.632170 -0.092748
H 0.882520 0.424070 0.677580 0.055840
H 0.954250 0.553450 0.710510 0.052364
H 0.007370 0.541000 0.643930 0.097334
H 0.934830 0.411710 0.610800 0.097619
B 0.008980 0.467310 0.579480 0.625814
O 0.048270 0.499790 0.572620 -0.678401
C 0.909300 0.549990 0.829660 0.031141
C 0.914090 0.509930 0.801390 -0.398007
C 0.949790 0.477470 0.811250 0.031313
C 0.980110 0.484670 0.849210 -0.092550
C 0.975040 0.524510 0.877880 0.012042
C 0.939380 0.557100 0.867830 -0.092748
H 0.882520 0.575930 0.822420 0.055840
H 0.954250 0.446550 0.789490 0.052364
H 0.007370 0.459000 0.856070 0.097334
H 0.934830 0.588290 0.889200 0.097619
B 0.008980 0.532690 0.920520 0.625814
O 0.048270 0.500210 0.927380 -0.678401
C 0.409300 0.049990 0.329660 0.031141
C 0.414090 0.009930 0.301390 -0.398007
C 0.449790 0.977470 0.311250 0.031313
C 0.480110 0.984670 0.349210 -0.092550
C 0.475040 0.024510 0.377880 0.012042
C 0.439380 0.057100 0.367830 -0.092748
H 0.382520 0.075930 0.322420 0.055840
H 0.454250 0.946550 0.289490 0.052364
H 0.507370 0.959000 0.356070 0.097334
H 0.434830 0.088290 0.389200 0.097619
B 0.508980 0.032690 0.420520 0.625814
O 0.548270 0.000210 0.427380 -0.678401
C 0.090700 0.049990 0.670340 0.031141
C 0.085910 0.009930 0.698610 -0.398007
C 0.050210 0.977470 0.688750 0.031313
C 0.019890 0.984670 0.650790 -0.092550
C 0.024960 0.024510 0.622120 0.012042
C 0.060620 0.057100 0.632170 -0.092748
H 0.117480 0.075930 0.677580 0.055840
H 0.045750 0.946550 0.710510 0.052364
H 0.992630 0.959000 0.643930 0.097334
H 0.065170 0.088290 0.610800 0.097619
B 0.991020 0.032690 0.579480 0.625814
O 0.951730 0.000210 0.572620 -0.678401
C 0.590700 0.549990 0.170340 0.031141
C 0.585910 0.509930 0.198610 -0.398007
C 0.550210 0.477470 0.188750 0.031313
C 0.519890 0.484670 0.150790 -0.092550
C 0.524960 0.524510 0.122120 0.012042
C 0.560620 0.557100 0.132170 -0.092748
H 0.617480 0.575930 0.177580 0.055840
H 0.545750 0.446550 0.210510 0.052364
H 0.492630 0.459000 0.143930 0.097334
H 0.565170 0.588290 0.110800 0.097619
B 0.491020 0.532690 0.079480 0.625814
O 0.451730 0.500210 0.072620 -0.678401
C 0.450010 0.329660 0.590700 0.031141
C 0.490070 0.301390 0.585910 -0.398007
C 0.522530 0.311250 0.550210 0.031313
C 0.515330 0.349210 0.519890 -0.092550
C 0.475490 0.377880 0.524960 0.012042
C 0.442900 0.367830 0.560620 -0.092748
H 0.424070 0.322420 0.617480 0.055840
H 0.553450 0.289490 0.545750 0.052364
H 0.541000 0.356070 0.492630 0.097334
H 0.411710 0.389200 0.565170 0.097619
B 0.467310 0.420520 0.491020 0.625814
O 0.499790 0.427380 0.451730 -0.678401
C 0.950010 0.829660 0.090700 0.031141
C 0.990070 0.801390 0.085910 -0.398007
C 0.022530 0.811250 0.050210 0.031313
C 0.015330 0.849210 0.019890 -0.092550
C 0.975490 0.877880 0.024960 0.012042
C 0.942900 0.867830 0.060620 -0.092748
H 0.924070 0.822420 0.117480 0.055840
H 0.053450 0.789490 0.045750 0.052364
H 0.041000 0.856070 0.992630 0.097334
H 0.911710 0.889200 0.065170 0.097619
B 0.967310 0.920520 0.991020 0.625814
O 0.999790 0.927380 0.951730 -0.678401
C 0.950010 0.170340 0.409300 0.031141
C 0.990070 0.198610 0.414090 -0.398007
C 0.022530 0.188750 0.449790 0.031313
C 0.015330 0.150790 0.480110 -0.092550
C 0.975490 0.122120 0.475040 0.012042
C 0.942900 0.132170 0.439380 -0.092748
H 0.924070 0.177580 0.382520 0.055840
H 0.053450 0.210510 0.454250 0.052364
H 0.041000 0.143930 0.507370 0.097334
H 0.911710 0.110800 0.434830 0.097619
B 0.967310 0.079480 0.508980 0.625814
O 0.999790 0.072620 0.548270 -0.678401
C 0.450010 0.670340 0.909300 0.031141
C 0.490070 0.698610 0.914090 -0.398007
C 0.522530 0.688750 0.949790 0.031313
C 0.515330 0.650790 0.980110 -0.092550
C 0.475490 0.622120 0.975040 0.012042
C 0.442900 0.632170 0.939380 -0.092748
H 0.424070 0.677580 0.882520 0.055840
H 0.553450 0.710510 0.954250 0.052364
H 0.541000 0.643930 0.007370 0.097334
H 0.411710 0.610800 0.934830 0.097619
B 0.467310 0.579480 0.008980 0.625814
O 0.499790 0.572620 0.048270 -0.678401
C 0.549990 0.829660 0.909300 0.031141
C 0.509930 0.801390 0.914090 -0.398007
C 0.477470 0.811250 0.949790 0.031313
C 0.484670 0.849210 0.980110 -0.092550
C 0.524510 0.877880 0.975040 0.012042
C 0.557100 0.867830 0.939380 -0.092748
H 0.575930 0.822420 0.882520 0.055840
H 0.446550 0.789490 0.954250 0.052364
H 0.459000 0.856070 0.007370 0.097334
H 0.588290 0.889200 0.934830 0.097619
B 0.532690 0.920520 0.008980 0.625814
O 0.500210 0.927380 0.048270 -0.678401
C 0.049990 0.329660 0.409300 0.031141
C 0.009930 0.301390 0.414090 -0.398007
C 0.977470 0.311250 0.449790 0.031313
C 0.984670 0.349210 0.480110 -0.092550
C 0.024510 0.377880 0.475040 0.012042
C 0.057100 0.367830 0.439380 -0.092748
H 0.075930 0.322420 0.382520 0.055840
H 0.946550 0.289490 0.454250 0.052364
H 0.959000 0.356070 0.507370 0.097334
H 0.088290 0.389200 0.434830 0.097619
B 0.032690 0.420520 0.508980 0.625814
O 0.000210 0.427380 0.548270 -0.678401
C 0.049990 0.670340 0.090700 0.031141
C 0.009930 0.698610 0.085910 -0.398007
C 0.977470 0.688750 0.050210 0.031313
C 0.984670 0.650790 0.019890 -0.092550
C 0.024510 0.622120 0.024960 0.012042
C 0.057100 0.632170 0.060620 -0.092748
H 0.075930 0.677580 0.117480 0.055840
H 0.946550 0.710510 0.045750 0.052364
H 0.959000 0.643930 0.992630 0.097334
H 0.088290 0.610800 0.065170 0.097619
B 0.032690 0.579480 0.991020 0.625814
O 0.000210 0.572620 0.951730 -0.678401
C 0.549990 0.170340 0.590700 0.031141
C 0.509930 0.198610 0.585910 -0.398007
C 0.477470 0.188750 0.550210 0.031313
C 0.484670 0.150790 0.519890 -0.092550
C 0.524510 0.122120 0.524960 0.012042
C 0.557100 0.132170 0.560620 -0.092748
H 0.575930 0.177580 0.617480 0.055840
H 0.446550 0.210510 0.545750 0.052364
H 0.459000 0.143930 0.492630 0.097334
H 0.588290 0.110800 0.565170 0.097619
B 0.532690 0.079480 0.491020 0.625814
O 0.500210 0.072620 0.451730 -0.678401
Si 0.375000 -0.000000 0.250000 1.032960
Si 0.125000 -0.000000 0.750000 1.032960
Si 0.625000 0.500000 0.250000 1.032960
Si 0.875000 0.500000 0.750000 1.032960
Si 0.250000 0.375000 0.000000 1.032960
Si 0.750000 0.125000 -0.000000 1.032960
Si 0.250000 0.625000 0.500000 1.032960
Si 0.750000 0.875000 0.500000 1.032960
Si 0.000000 0.250000 0.375000 1.032960
Si 0.000000 0.750000 0.125000 1.032960
Si 0.500000 0.250000 0.625000 1.032960
Si 0.500000 0.750000 0.875000 1.032960
