data_COF-102_PM
_symmetry_space_group_name_H-M   'P 1'
_cell_length_a 27.177099
_cell_length_b 27.177099
_cell_length_c 27.177099
_cell_angle_alpha 90.000000
_cell_angle_beta 90.000000
_cell_angle_gamma 90.000000
_symmetry_Int_Tables_number 1

loop_
_symmetry_equiv_pos_as_xyz
 'x, y, z'

loop_
_atom_site_label
_atom_site_fract_x
_atom_site_fract_y
_atom_site_fract_z
_atom_site_charge
O 0.828500 0.746930 0.302980 -0.675730
B 0.835330 0.713250 0.262160 0.630466
C 0.904900 0.766290 0.227580 0.000570
H 0.895520 0.794600 0.253520 0.086868
C 0.878940 0.722310 0.226300 -0.070672
C 0.931200 0.694190 0.160490 -0.145909
H 0.941250 0.664150 0.137170 0.089909
C 0.956340 0.739300 0.159600 0.049415
C 0.892520 0.686300 0.192720 0.001809
H 0.873770 0.651500 0.191760 0.087220
C 0.943060 0.774590 0.194840 -0.136709
H 0.962230 0.809110 0.196600 0.088929
O 0.328500 0.246930 0.802980 -0.675730
B 0.335330 0.213250 0.762160 0.630466
C 0.404900 0.266290 0.727580 0.000570
H 0.395520 0.294600 0.753520 0.086868
C 0.378940 0.222310 0.726300 -0.070672
C 0.431200 0.194190 0.660490 -0.145909
H 0.441250 0.164150 0.637170 0.089909
C 0.456340 0.239300 0.659600 0.049415
C 0.392520 0.186300 0.692720 0.001809
H 0.373770 0.151500 0.691760 0.087220
C 0.443060 0.274590 0.694840 -0.136709
H 0.462230 0.309110 0.696600 0.088929
O 0.671500 0.253070 0.802980 -0.675730
B 0.664670 0.286750 0.762160 0.630466
C 0.595100 0.233710 0.727580 0.000570
H 0.604480 0.205400 0.753520 0.086868
C 0.621060 0.277690 0.726300 -0.070672
C 0.568800 0.305810 0.660490 -0.145909
H 0.558750 0.335850 0.637170 0.089909
C 0.543660 0.260700 0.659600 0.049415
C 0.607480 0.313700 0.692720 0.001809
H 0.626230 0.348500 0.691760 0.087220
C 0.556940 0.225410 0.694840 -0.136709
H 0.537770 0.190890 0.696600 0.088929
O 0.171500 0.753070 0.302980 -0.675730
B 0.164670 0.786750 0.262160 0.630466
C 0.095100 0.733710 0.227580 0.000570
H 0.104480 0.705400 0.253520 0.086868
C 0.121060 0.777690 0.226300 -0.070672
C 0.068800 0.805810 0.160490 -0.145909
H 0.058750 0.835850 0.137170 0.089909
C 0.043660 0.760700 0.159600 0.049415
C 0.107480 0.813700 0.192720 0.001809
H 0.126230 0.848500 0.191760 0.087220
C 0.056940 0.725410 0.194840 -0.136709
H 0.037770 0.690890 0.196600 0.088929
O 0.171500 0.246930 0.197020 -0.675730
B 0.164670 0.213250 0.237840 0.630466
C 0.095100 0.266290 0.272420 0.000570
H 0.104480 0.294600 0.246480 0.086868
C 0.121060 0.222310 0.273700 -0.070672
C 0.068800 0.194190 0.339510 -0.145909
H 0.058750 0.164150 0.362830 0.089909
C 0.043660 0.239300 0.340400 0.049415
C 0.107480 0.186300 0.307280 0.001809
H 0.126230 0.151500 0.308240 0.087220
C 0.056940 0.274590 0.305160 -0.136709
H 0.037770 0.309110 0.303400 0.088929
O 0.671500 0.746930 0.697020 -0.675730
B 0.664670 0.713250 0.737840 0.630466
C 0.595100 0.766290 0.772420 0.000570
H 0.604480 0.794600 0.746480 0.086868
C 0.621060 0.722310 0.773700 -0.070672
C 0.568800 0.694190 0.839510 -0.145909
H 0.558750 0.664150 0.862830 0.089909
C 0.543660 0.739300 0.840400 0.049415
C 0.607480 0.686300 0.807280 0.001809
H 0.626230 0.651500 0.808240 0.087220
C 0.556940 0.774590 0.805160 -0.136709
H 0.537770 0.809110 0.803400 0.088929
O 0.328500 0.753070 0.697020 -0.675730
B 0.335330 0.786750 0.737840 0.630466
C 0.404900 0.733710 0.772420 0.000570
H 0.395520 0.705400 0.746480 0.086868
C 0.378940 0.777690 0.773700 -0.070672
C 0.431200 0.805810 0.839510 -0.145909
H 0.441250 0.835850 0.862830 0.089909
C 0.456340 0.760700 0.840400 0.049415
C 0.392520 0.813700 0.807280 0.001809
H 0.373770 0.848500 0.808240 0.087220
C 0.443060 0.725410 0.805160 -0.136709
H 0.462230 0.690890 0.803400 0.088929
O 0.828500 0.253070 0.197020 -0.675730
B 0.835330 0.286750 0.237840 0.630466
C 0.904900 0.233710 0.272420 0.000570
H 0.895520 0.205400 0.246480 0.086868
C 0.878940 0.277690 0.273700 -0.070672
C 0.931200 0.305810 0.339510 -0.145909
H 0.941250 0.335850 0.362830 0.089909
C 0.956340 0.260700 0.340400 0.049415
C 0.892520 0.313700 0.307280 0.001809
H 0.873770 0.348500 0.308240 0.087220
C 0.943060 0.225410 0.305160 -0.136709
H 0.962230 0.190890 0.303400 0.088929
O 0.302980 0.828500 0.746930 -0.675730
B 0.262160 0.835330 0.713250 0.630466
C 0.227580 0.904900 0.766290 0.000570
H 0.253520 0.895520 0.794600 0.086868
C 0.226300 0.878940 0.722310 -0.070672
C 0.160490 0.931200 0.694190 -0.145909
H 0.137170 0.941250 0.664150 0.089909
C 0.159600 0.956340 0.739300 0.049415
C 0.192720 0.892520 0.686300 0.001809
H 0.191760 0.873770 0.651500 0.087220
C 0.194840 0.943060 0.774590 -0.136709
H 0.196600 0.962230 0.809110 0.088929
O 0.802980 0.328500 0.246930 -0.675730
B 0.762160 0.335330 0.213250 0.630466
C 0.727580 0.404900 0.266290 0.000570
H 0.753520 0.395520 0.294600 0.086868
C 0.726300 0.378940 0.222310 -0.070672
C 0.660490 0.431200 0.194190 -0.145909
H 0.637170 0.441250 0.164150 0.089909
C 0.659600 0.456340 0.239300 0.049415
C 0.692720 0.392520 0.186300 0.001809
H 0.691760 0.373770 0.151500 0.087220
C 0.694840 0.443060 0.274590 -0.136709
H 0.696600 0.462230 0.309110 0.088929
O 0.802980 0.671500 0.253070 -0.675730
B 0.762160 0.664670 0.286750 0.630466
C 0.727580 0.595100 0.233710 0.000570
H 0.753520 0.604480 0.205400 0.086868
C 0.726300 0.621060 0.277690 -0.070672
C 0.660490 0.568800 0.305810 -0.145909
H 0.637170 0.558750 0.335850 0.089909
C 0.659600 0.543660 0.260700 0.049415
C 0.692720 0.607480 0.313700 0.001809
H 0.691760 0.626230 0.348500 0.087220
C 0.694840 0.556940 0.225410 -0.136709
H 0.696600 0.537770 0.190890 0.088929
O 0.302980 0.171500 0.753070 -0.675730
B 0.262160 0.164670 0.786750 0.630466
C 0.227580 0.095100 0.733710 0.000570
H 0.253520 0.104480 0.705400 0.086868
C 0.226300 0.121060 0.777690 -0.070672
C 0.160490 0.068800 0.805810 -0.145909
H 0.137170 0.058750 0.835850 0.089909
C 0.159600 0.043660 0.760700 0.049415
C 0.192720 0.107480 0.813700 0.001809
H 0.191760 0.126230 0.848500 0.087220
C 0.194840 0.056940 0.725410 -0.136709
H 0.196600 0.037770 0.690890 0.088929
O 0.197020 0.171500 0.246930 -0.675730
B 0.237840 0.164670 0.213250 0.630466
C 0.272420 0.095100 0.266290 0.000570
H 0.246480 0.104480 0.294600 0.086868
C 0.273700 0.121060 0.222310 -0.070672
C 0.339510 0.068800 0.194190 -0.145909
H 0.362830 0.058750 0.164150 0.089909
C 0.340400 0.043660 0.239300 0.049415
C 0.307280 0.107480 0.186300 0.001809
H 0.308240 0.126230 0.151500 0.087220
C 0.305160 0.056940 0.274590 -0.136709
H 0.303400 0.037770 0.309110 0.088929
O 0.697020 0.671500 0.746930 -0.675730
B 0.737840 0.664670 0.713250 0.630466
C 0.772420 0.595100 0.766290 0.000570
H 0.746480 0.604480 0.794600 0.086868
C 0.773700 0.621060 0.722310 -0.070672
C 0.839510 0.568800 0.694190 -0.145909
H 0.862830 0.558750 0.664150 0.089909
C 0.840400 0.543660 0.739300 0.049415
C 0.807280 0.607480 0.686300 0.001809
H 0.808240 0.626230 0.651500 0.087220
C 0.805160 0.556940 0.774590 -0.136709
H 0.803400 0.537770 0.809110 0.088929
O 0.697020 0.328500 0.753070 -0.675730
B 0.737840 0.335330 0.786750 0.630466
C 0.772420 0.404900 0.733710 0.000570
H 0.746480 0.395520 0.705400 0.086868
C 0.773700 0.378940 0.777690 -0.070672
C 0.839510 0.431200 0.805810 -0.145909
H 0.862830 0.441250 0.835850 0.089909
C 0.840400 0.456340 0.760700 0.049415
C 0.807280 0.392520 0.813700 0.001809
H 0.808240 0.373770 0.848500 0.087220
C 0.805160 0.443060 0.725410 -0.136709
H 0.803400 0.462230 0.690890 0.088929
O 0.197020 0.828500 0.253070 -0.675730
B 0.237840 0.835330 0.286750 0.630466
C 0.272420 0.904900 0.233710 0.000570
H 0.246480 0.895520 0.205400 0.086868
C 0.273700 0.878940 0.277690 -0.070672
C 0.339510 0.931200 0.305810 -0.145909
H 0.362830 0.941250 0.335850 0.089909
C 0.340400 0.956340 0.260700 0.049415
C 0.307280 0.892520 0.313700 0.001809
H 0.308240 0.873770 0.348500 0.087220
C 0.305160 0.943060 0.225410 -0.136709
H 0.303400 0.962230 0.190890 0.088929
O 0.746930 0.302980 0.828500 -0.675730
B 0.713250 0.262160 0.835330 0.630466
C 0.766290 0.227580 0.904900 0.000570
H 0.794600 0.253520 0.895520 0.086868
C 0.722310 0.226300 0.878940 -0.070672
C 0.694190 0.160490 0.931200 -0.145909
H 0.664150 0.137170 0.941250 0.089909
C 0.739300 0.159600 0.956340 0.049415
C 0.686300 0.192720 0.892520 0.001809
H 0.651500 0.191760 0.873770 0.087220
C 0.774590 0.194840 0.943060 -0.136709
H 0.809110 0.196600 0.962230 0.088929
O 0.246930 0.802980 0.328500 -0.675730
B 0.213250 0.762160 0.335330 0.630466
C 0.266290 0.727580 0.404900 0.000570
H 0.294600 0.753520 0.395520 0.086868
C 0.222310 0.726300 0.378940 -0.070672
C 0.194190 0.660490 0.431200 -0.145909
H 0.164150 0.637170 0.441250 0.089909
C 0.239300 0.659600 0.456340 0.049415
C 0.186300 0.692720 0.392520 0.001809
H 0.151500 0.691760 0.373770 0.087220
C 0.274590 0.694840 0.443060 -0.136709
H 0.309110 0.696600 0.462230 0.088929
O 0.253070 0.802980 0.671500 -0.675730
B 0.286750 0.762160 0.664670 0.630466
C 0.233710 0.727580 0.595100 0.000570
H 0.205400 0.753520 0.604480 0.086868
C 0.277690 0.726300 0.621060 -0.070672
C 0.305810 0.660490 0.568800 -0.145909
H 0.335850 0.637170 0.558750 0.089909
C 0.260700 0.659600 0.543660 0.049415
C 0.313700 0.692720 0.607480 0.001809
H 0.348500 0.691760 0.626230 0.087220
C 0.225410 0.694840 0.556940 -0.136709
H 0.190890 0.696600 0.537770 0.088929
O 0.753070 0.302980 0.171500 -0.675730
B 0.786750 0.262160 0.164670 0.630466
C 0.733710 0.227580 0.095100 0.000570
H 0.705400 0.253520 0.104480 0.086868
C 0.777690 0.226300 0.121060 -0.070672
C 0.805810 0.160490 0.068800 -0.145909
H 0.835850 0.137170 0.058750 0.089909
C 0.760700 0.159600 0.043660 0.049415
C 0.813700 0.192720 0.107480 0.001809
H 0.848500 0.191760 0.126230 0.087220
C 0.725410 0.194840 0.056940 -0.136709
H 0.690890 0.196600 0.037770 0.088929
O 0.246930 0.197020 0.171500 -0.675730
B 0.213250 0.237840 0.164670 0.630466
C 0.266290 0.272420 0.095100 0.000570
H 0.294600 0.246480 0.104480 0.086868
C 0.222310 0.273700 0.121060 -0.070672
C 0.194190 0.339510 0.068800 -0.145909
H 0.164150 0.362830 0.058750 0.089909
C 0.239300 0.340400 0.043660 0.049415
C 0.186300 0.307280 0.107480 0.001809
H 0.151500 0.308240 0.126230 0.087220
C 0.274590 0.305160 0.056940 -0.136709
H 0.309110 0.303400 0.037770 0.088929
O 0.746930 0.697020 0.671500 -0.675730
B 0.713250 0.737840 0.664670 0.630466
C 0.766290 0.772420 0.595100 0.000570
H 0.794600 0.746480 0.604480 0.086868
C 0.722310 0.773700 0.621060 -0.070672
C 0.694190 0.839510 0.568800 -0.145909
H 0.664150 0.862830 0.558750 0.089909
C 0.739300 0.840400 0.543660 0.049415
C 0.686300 0.807280 0.607480 0.001809
H 0.651500 0.808240 0.626230 0.087220
C 0.774590 0.805160 0.556940 -0.136709
H 0.809110 0.803400 0.537770 0.088929
O 0.753070 0.697020 0.328500 -0.675730
B 0.786750 0.737840 0.335330 0.630466
C 0.733710 0.772420 0.404900 0.000570
H 0.705400 0.746480 0.395520 0.086868
C 0.777690 0.773700 0.378940 -0.070672
C 0.805810 0.839510 0.431200 -0.145909
H 0.835850 0.862830 0.441250 0.089909
C 0.760700 0.840400 0.456340 0.049415
C 0.813700 0.807280 0.392520 0.001809
H 0.848500 0.808240 0.373770 0.087220
C 0.725410 0.805160 0.443060 -0.136709
H 0.690890 0.803400 0.462230 0.088929
O 0.253070 0.197020 0.828500 -0.675730
B 0.286750 0.237840 0.835330 0.630466
C 0.233710 0.272420 0.904900 0.000570
H 0.205400 0.246480 0.895520 0.086868
C 0.277690 0.273700 0.878940 -0.070672
C 0.305810 0.339510 0.931200 -0.145909
H 0.335850 0.362830 0.941250 0.089909
C 0.260700 0.340400 0.956340 0.049415
C 0.313700 0.307280 0.892520 0.001809
H 0.348500 0.308240 0.873770 0.087220
C 0.225410 0.305160 0.943060 -0.136709
H 0.190890 0.303400 0.962230 0.088929
O 0.996930 0.078500 0.552980 -0.675730
B 0.963250 0.085330 0.512160 0.630466
C 0.016290 0.154900 0.477580 0.000570
H 0.044600 0.145520 0.503520 0.086868
C 0.972310 0.128940 0.476300 -0.070672
C 0.944190 0.181200 0.410490 -0.145909
H 0.914150 0.191250 0.387170 0.089909
C 0.989300 0.206340 0.409600 0.049415
C 0.936300 0.142520 0.442720 0.001809
H 0.901500 0.123770 0.441760 0.087220
C 0.024590 0.193060 0.444840 -0.136709
H 0.059110 0.212230 0.446600 0.088929
O 0.496930 0.578500 0.052980 -0.675730
B 0.463250 0.585330 0.012160 0.630466
C 0.516290 0.654900 0.977580 0.000570
H 0.544600 0.645520 0.003520 0.086868
C 0.472310 0.628940 0.976300 -0.070672
C 0.444190 0.681200 0.910490 -0.145909
H 0.414150 0.691250 0.887170 0.089909
C 0.489300 0.706340 0.909600 0.049415
C 0.436300 0.642520 0.942720 0.001809
H 0.401500 0.623770 0.941760 0.087220
C 0.524590 0.693060 0.944840 -0.136709
H 0.559110 0.712230 0.946600 0.088929
O 0.503070 0.921500 0.052980 -0.675730
B 0.536750 0.914670 0.012160 0.630466
C 0.483710 0.845100 0.977580 0.000570
H 0.455400 0.854480 0.003520 0.086868
C 0.527690 0.871060 0.976300 -0.070672
C 0.555810 0.818800 0.910490 -0.145909
H 0.585850 0.808750 0.887170 0.089909
C 0.510700 0.793660 0.909600 0.049415
C 0.563700 0.857480 0.942720 0.001809
H 0.598500 0.876230 0.941760 0.087220
C 0.475410 0.806940 0.944840 -0.136709
H 0.440890 0.787770 0.946600 0.088929
O 0.003070 0.421500 0.552980 -0.675730
B 0.036750 0.414670 0.512160 0.630466
C 0.983710 0.345100 0.477580 0.000570
H 0.955400 0.354480 0.503520 0.086868
C 0.027690 0.371060 0.476300 -0.070672
C 0.055810 0.318800 0.410490 -0.145909
H 0.085850 0.308750 0.387170 0.089909
C 0.010700 0.293660 0.409600 0.049415
C 0.063700 0.357480 0.442720 0.001809
H 0.098500 0.376230 0.441760 0.087220
C 0.975410 0.306940 0.444840 -0.136709
H 0.940890 0.287770 0.446600 0.088929
O 0.496930 0.421500 0.447020 -0.675730
B 0.463250 0.414670 0.487840 0.630466
C 0.516290 0.345100 0.522420 0.000570
H 0.544600 0.354480 0.496480 0.086868
C 0.472310 0.371060 0.523700 -0.070672
C 0.444190 0.318800 0.589510 -0.145909
H 0.414150 0.308750 0.612830 0.089909
C 0.489300 0.293660 0.590400 0.049415
C 0.436300 0.357480 0.557280 0.001809
H 0.401500 0.376230 0.558240 0.087220
C 0.524590 0.306940 0.555160 -0.136709
H 0.559110 0.287770 0.553400 0.088929
O 0.996930 0.921500 0.947020 -0.675730
B 0.963250 0.914670 0.987840 0.630466
C 0.016290 0.845100 0.022420 0.000570
H 0.044600 0.854480 0.996480 0.086868
C 0.972310 0.871060 0.023700 -0.070672
C 0.944190 0.818800 0.089510 -0.145909
H 0.914150 0.808750 0.112830 0.089909
C 0.989300 0.793660 0.090400 0.049415
C 0.936300 0.857480 0.057280 0.001809
H 0.901500 0.876230 0.058240 0.087220
C 0.024590 0.806940 0.055160 -0.136709
H 0.059110 0.787770 0.053400 0.088929
O 0.003070 0.578500 0.947020 -0.675730
B 0.036750 0.585330 0.987840 0.630466
C 0.983710 0.654900 0.022420 0.000570
H 0.955400 0.645520 0.996480 0.086868
C 0.027690 0.628940 0.023700 -0.070672
C 0.055810 0.681200 0.089510 -0.145909
H 0.085850 0.691250 0.112830 0.089909
C 0.010700 0.706340 0.090400 0.049415
C 0.063700 0.642520 0.057280 0.001809
H 0.098500 0.623770 0.058240 0.087220
C 0.975410 0.693060 0.055160 -0.136709
H 0.940890 0.712230 0.053400 0.088929
O 0.503070 0.078500 0.447020 -0.675730
B 0.536750 0.085330 0.487840 0.630466
C 0.483710 0.154900 0.522420 0.000570
H 0.455400 0.145520 0.496480 0.086868
C 0.527690 0.128940 0.523700 -0.070672
C 0.555810 0.181200 0.589510 -0.145909
H 0.585850 0.191250 0.612830 0.089909
C 0.510700 0.206340 0.590400 0.049415
C 0.563700 0.142520 0.557280 0.001809
H 0.598500 0.123770 0.558240 0.087220
C 0.475410 0.193060 0.555160 -0.136709
H 0.440890 0.212230 0.553400 0.088929
O 0.078500 0.552980 0.996930 -0.675730
B 0.085330 0.512160 0.963250 0.630466
C 0.154900 0.477580 0.016290 0.000570
H 0.145520 0.503520 0.044600 0.086868
C 0.128940 0.476300 0.972310 -0.070672
C 0.181200 0.410490 0.944190 -0.145909
H 0.191250 0.387170 0.914150 0.089909
C 0.206340 0.409600 0.989300 0.049415
C 0.142520 0.442720 0.936300 0.001809
H 0.123770 0.441760 0.901500 0.087220
C 0.193060 0.444840 0.024590 -0.136709
H 0.212230 0.446600 0.059110 0.088929
O 0.578500 0.052980 0.496930 -0.675730
B 0.585330 0.012160 0.463250 0.630466
C 0.654900 0.977580 0.516290 0.000570
H 0.645520 0.003520 0.544600 0.086868
C 0.628940 0.976300 0.472310 -0.070672
C 0.681200 0.910490 0.444190 -0.145909
H 0.691250 0.887170 0.414150 0.089909
C 0.706340 0.909600 0.489300 0.049415
C 0.642520 0.942720 0.436300 0.001809
H 0.623770 0.941760 0.401500 0.087220
C 0.693060 0.944840 0.524590 -0.136709
H 0.712230 0.946600 0.559110 0.088929
O 0.921500 0.052980 0.503070 -0.675730
B 0.914670 0.012160 0.536750 0.630466
C 0.845100 0.977580 0.483710 0.000570
H 0.854480 0.003520 0.455400 0.086868
C 0.871060 0.976300 0.527690 -0.070672
C 0.818800 0.910490 0.555810 -0.145909
H 0.808750 0.887170 0.585850 0.089909
C 0.793660 0.909600 0.510700 0.049415
C 0.857480 0.942720 0.563700 0.001809
H 0.876230 0.941760 0.598500 0.087220
C 0.806940 0.944840 0.475410 -0.136709
H 0.787770 0.946600 0.440890 0.088929
O 0.421500 0.552980 0.003070 -0.675730
B 0.414670 0.512160 0.036750 0.630466
C 0.345100 0.477580 0.983710 0.000570
H 0.354480 0.503520 0.955400 0.086868
C 0.371060 0.476300 0.027690 -0.070672
C 0.318800 0.410490 0.055810 -0.145909
H 0.308750 0.387170 0.085850 0.089909
C 0.293660 0.409600 0.010700 0.049415
C 0.357480 0.442720 0.063700 0.001809
H 0.376230 0.441760 0.098500 0.087220
C 0.306940 0.444840 0.975410 -0.136709
H 0.287770 0.446600 0.940890 0.088929
O 0.421500 0.447020 0.496930 -0.675730
B 0.414670 0.487840 0.463250 0.630466
C 0.345100 0.522420 0.516290 0.000570
H 0.354480 0.496480 0.544600 0.086868
C 0.371060 0.523700 0.472310 -0.070672
C 0.318800 0.589510 0.444190 -0.145909
H 0.308750 0.612830 0.414150 0.089909
C 0.293660 0.590400 0.489300 0.049415
C 0.357480 0.557280 0.436300 0.001809
H 0.376230 0.558240 0.401500 0.087220
C 0.306940 0.555160 0.524590 -0.136709
H 0.287770 0.553400 0.559110 0.088929
O 0.921500 0.947020 0.996930 -0.675730
B 0.914670 0.987840 0.963250 0.630466
C 0.845100 0.022420 0.016290 0.000570
H 0.854480 0.996480 0.044600 0.086868
C 0.871060 0.023700 0.972310 -0.070672
C 0.818800 0.089510 0.944190 -0.145909
H 0.808750 0.112830 0.914150 0.089909
C 0.793660 0.090400 0.989300 0.049415
C 0.857480 0.057280 0.936300 0.001809
H 0.876230 0.058240 0.901500 0.087220
C 0.806940 0.055160 0.024590 -0.136709
H 0.787770 0.053400 0.059110 0.088929
O 0.578500 0.947020 0.003070 -0.675730
B 0.585330 0.987840 0.036750 0.630466
C 0.654900 0.022420 0.983710 0.000570
H 0.645520 0.996480 0.955400 0.086868
C 0.628940 0.023700 0.027690 -0.070672
C 0.681200 0.089510 0.055810 -0.145909
H 0.691250 0.112830 0.085850 0.089909
C 0.706340 0.090400 0.010700 0.049415
C 0.642520 0.057280 0.063700 0.001809
H 0.623770 0.058240 0.098500 0.087220
C 0.693060 0.055160 0.975410 -0.136709
H 0.712230 0.053400 0.940890 0.088929
O 0.078500 0.447020 0.503070 -0.675730
B 0.085330 0.487840 0.536750 0.630466
C 0.154900 0.522420 0.483710 0.000570
H 0.145520 0.496480 0.455400 0.086868
C 0.128940 0.523700 0.527690 -0.070672
C 0.181200 0.589510 0.555810 -0.145909
H 0.191250 0.612830 0.585850 0.089909
C 0.206340 0.590400 0.510700 0.049415
C 0.142520 0.557280 0.563700 0.001809
H 0.123770 0.558240 0.598500 0.087220
C 0.193060 0.555160 0.475410 -0.136709
H 0.212230 0.553400 0.440890 0.088929
O 0.552980 0.996930 0.078500 -0.675730
B 0.512160 0.963250 0.085330 0.630466
C 0.477580 0.016290 0.154900 0.000570
H 0.503520 0.044600 0.145520 0.086868
C 0.476300 0.972310 0.128940 -0.070672
C 0.410490 0.944190 0.181200 -0.145909
H 0.387170 0.914150 0.191250 0.089909
C 0.409600 0.989300 0.206340 0.049415
C 0.442720 0.936300 0.142520 0.001809
H 0.441760 0.901500 0.123770 0.087220
C 0.444840 0.024590 0.193060 -0.136709
H 0.446600 0.059110 0.212230 0.088929
O 0.052980 0.496930 0.578500 -0.675730
B 0.012160 0.463250 0.585330 0.630466
C 0.977580 0.516290 0.654900 0.000570
H 0.003520 0.544600 0.645520 0.086868
C 0.976300 0.472310 0.628940 -0.070672
C 0.910490 0.444190 0.681200 -0.145909
H 0.887170 0.414150 0.691250 0.089909
C 0.909600 0.489300 0.706340 0.049415
C 0.942720 0.436300 0.642520 0.001809
H 0.941760 0.401500 0.623770 0.087220
C 0.944840 0.524590 0.693060 -0.136709
H 0.946600 0.559110 0.712230 0.088929
O 0.052980 0.503070 0.921500 -0.675730
B 0.012160 0.536750 0.914670 0.630466
C 0.977580 0.483710 0.845100 0.000570
H 0.003520 0.455400 0.854480 0.086868
C 0.976300 0.527690 0.871060 -0.070672
C 0.910490 0.555810 0.818800 -0.145909
H 0.887170 0.585850 0.808750 0.089909
C 0.909600 0.510700 0.793660 0.049415
C 0.942720 0.563700 0.857480 0.001809
H 0.941760 0.598500 0.876230 0.087220
C 0.944840 0.475410 0.806940 -0.136709
H 0.946600 0.440890 0.787770 0.088929
O 0.552980 0.003070 0.421500 -0.675730
B 0.512160 0.036750 0.414670 0.630466
C 0.477580 0.983710 0.345100 0.000570
H 0.503520 0.955400 0.354480 0.086868
C 0.476300 0.027690 0.371060 -0.070672
C 0.410490 0.055810 0.318800 -0.145909
H 0.387170 0.085850 0.308750 0.089909
C 0.409600 0.010700 0.293660 0.049415
C 0.442720 0.063700 0.357480 0.001809
H 0.441760 0.098500 0.376230 0.087220
C 0.444840 0.975410 0.306940 -0.136709
H 0.446600 0.940890 0.287770 0.088929
O 0.447020 0.496930 0.421500 -0.675730
B 0.487840 0.463250 0.414670 0.630466
C 0.522420 0.516290 0.345100 0.000570
H 0.496480 0.544600 0.354480 0.086868
C 0.523700 0.472310 0.371060 -0.070672
C 0.589510 0.444190 0.318800 -0.145909
H 0.612830 0.414150 0.308750 0.089909
C 0.590400 0.489300 0.293660 0.049415
C 0.557280 0.436300 0.357480 0.001809
H 0.558240 0.401500 0.376230 0.087220
C 0.555160 0.524590 0.306940 -0.136709
H 0.553400 0.559110 0.287770 0.088929
O 0.947020 0.996930 0.921500 -0.675730
B 0.987840 0.963250 0.914670 0.630466
C 0.022420 0.016290 0.845100 0.000570
H 0.996480 0.044600 0.854480 0.086868
C 0.023700 0.972310 0.871060 -0.070672
C 0.089510 0.944190 0.818800 -0.145909
H 0.112830 0.914150 0.808750 0.089909
C 0.090400 0.989300 0.793660 0.049415
C 0.057280 0.936300 0.857480 0.001809
H 0.058240 0.901500 0.876230 0.087220
C 0.055160 0.024590 0.806940 -0.136709
H 0.053400 0.059110 0.787770 0.088929
O 0.947020 0.003070 0.578500 -0.675730
B 0.987840 0.036750 0.585330 0.630466
C 0.022420 0.983710 0.654900 0.000570
H 0.996480 0.955400 0.645520 0.086868
C 0.023700 0.027690 0.628940 -0.070672
C 0.089510 0.055810 0.681200 -0.145909
H 0.112830 0.085850 0.691250 0.089909
C 0.090400 0.010700 0.706340 0.049415
C 0.057280 0.063700 0.642520 0.001809
H 0.058240 0.098500 0.623770 0.087220
C 0.055160 0.975410 0.693060 -0.136709
H 0.053400 0.940890 0.712230 0.088929
O 0.447020 0.503070 0.078500 -0.675730
B 0.487840 0.536750 0.085330 0.630466
C 0.522420 0.483710 0.154900 0.000570
H 0.496480 0.455400 0.145520 0.086868
C 0.523700 0.527690 0.128940 -0.070672
C 0.589510 0.555810 0.181200 -0.145909
H 0.612830 0.585850 0.191250 0.089909
C 0.590400 0.510700 0.206340 0.049415
C 0.557280 0.563700 0.142520 0.001809
H 0.558240 0.598500 0.123770 0.087220
C 0.555160 0.475410 0.193060 -0.136709
H 0.553400 0.440890 0.212230 0.088929
C 0.000000 0.750000 0.125000 -0.024667
C 0.500000 0.250000 0.625000 -0.024667
C 0.000000 0.250000 0.375000 -0.024667
C 0.500000 0.750000 0.875000 -0.024667
C 0.125000 0.000000 0.750000 -0.024667
C 0.625000 0.500000 0.250000 -0.024667
C 0.375000 0.000000 0.250000 -0.024667
C 0.875000 0.500000 0.750000 -0.024667
C 0.750000 0.125000 0.000000 -0.024667
C 0.250000 0.625000 0.500000 -0.024667
C 0.250000 0.375000 0.000000 -0.024667
C 0.750000 0.875000 0.500000 -0.024667
