data_FIQCEN_clean_PM
_symmetry_space_group_name_H-M   'P 1'
_cell_length_a 18.627300
_cell_length_b 18.627300
_cell_length_c 18.627300
_cell_angle_alpha 60.000000
_cell_angle_beta 60.000000
_cell_angle_gamma 60.000000
_symmetry_Int_Tables_number 1

loop_
_symmetry_equiv_pos_as_xyz
 'x, y, z'

loop_
_atom_site_label
_atom_site_fract_x
_atom_site_fract_y
_atom_site_fract_z
_atom_site_charge
Cu 0.570570 -0.000000 0.429430 1.188769
Cu 0.000000 0.570570 0.000000 1.188770
Cu 0.429430 0.000000 0.570570 1.188770
Cu 0.000000 0.429430 0.000000 1.188770
Cu 0.570570 0.429430 0.000000 1.188770
Cu 0.000000 0.000000 0.429430 1.188769
Cu 0.429430 0.570570 -0.000000 1.188770
Cu 0.000000 0.000000 0.570570 1.188770
Cu 0.570570 -0.000000 0.000000 1.188770
Cu 0.000000 0.429430 0.570570 1.188770
Cu 0.429430 0.000000 0.000000 1.188769
Cu 0.000000 0.570570 0.429430 1.188770
H 0.728000 0.728000 0.511600 0.159837
H 0.728000 0.728000 0.032400 0.159835
H 0.511600 0.032400 0.728000 0.159836
H 0.032400 0.511600 0.728000 0.159836
H 0.728000 0.511600 0.032400 0.159836
H 0.728000 0.032400 0.511600 0.159836
H 0.511600 0.728000 0.728000 0.159837
H 0.032400 0.728000 0.728000 0.159835
H 0.728000 0.032400 0.728000 0.159835
H 0.728000 0.511600 0.728000 0.159837
H 0.511600 0.728000 0.032400 0.159836
H 0.032400 0.728000 0.511600 0.159836
H 0.272000 0.272000 0.488400 0.159837
H 0.272000 0.272000 0.967600 0.159835
H 0.967600 0.488400 0.272000 0.159836
H 0.488400 0.967600 0.272000 0.159836
H 0.488400 0.272000 0.967600 0.159836
H 0.967600 0.272000 0.488400 0.159836
H 0.272000 0.488400 0.272000 0.159837
H 0.272000 0.967600 0.272000 0.159835
H 0.967600 0.272000 0.272000 0.159835
H 0.488400 0.272000 0.272000 0.159837
H 0.272000 0.488400 0.967600 0.159836
H 0.272000 0.967600 0.488400 0.159836
C 0.257000 0.969000 0.387000 0.040651
C 0.969000 0.257000 0.387000 0.040651
C 0.387000 0.387000 0.257000 0.040657
C 0.387000 0.387000 0.969000 0.040652
C 0.257000 0.387000 0.387000 0.040657
C 0.969000 0.387000 0.387000 0.040652
C 0.387000 0.257000 0.969000 0.040651
C 0.387000 0.969000 0.257000 0.040651
C 0.257000 0.387000 0.969000 0.040650
C 0.969000 0.387000 0.257000 0.040651
C 0.387000 0.969000 0.387000 0.040652
C 0.387000 0.257000 0.387000 0.040657
C 0.031000 0.743000 0.613000 0.040651
C 0.743000 0.031000 0.613000 0.040651
C 0.613000 0.613000 0.743000 0.040657
C 0.613000 0.613000 0.031000 0.040652
C 0.613000 0.743000 0.613000 0.040657
C 0.613000 0.031000 0.613000 0.040652
C 0.743000 0.613000 0.031000 0.040651
C 0.031000 0.613000 0.743000 0.040651
C 0.613000 0.743000 0.031000 0.040650
C 0.613000 0.031000 0.743000 0.040651
C 0.031000 0.613000 0.613000 0.040653
C 0.743000 0.613000 0.613000 0.040657
C 0.568700 0.568700 0.837700 0.485957
C 0.568700 0.568700 0.024900 0.485957
C 0.837700 0.024900 0.568700 0.485958
C 0.024900 0.837700 0.568700 0.485959
C 0.568700 0.837700 0.024900 0.485960
C 0.568700 0.024900 0.837700 0.485958
C 0.837700 0.568700 0.568700 0.485956
C 0.024900 0.568700 0.568700 0.485958
C 0.568700 0.024900 0.568700 0.485957
C 0.568700 0.837700 0.568700 0.485957
C 0.837700 0.568700 0.024900 0.485959
C 0.024900 0.568700 0.837700 0.485958
C 0.431300 0.431300 0.162300 0.485955
C 0.431300 0.431300 0.975100 0.485958
C 0.975100 0.162300 0.431300 0.485959
C 0.162300 0.975100 0.431300 0.485957
C 0.162300 0.431300 0.975100 0.485959
C 0.975100 0.431300 0.162300 0.485959
C 0.431300 0.162300 0.431300 0.485956
C 0.431300 0.975100 0.431300 0.485957
C 0.975100 0.431300 0.431300 0.485958
C 0.162300 0.431300 0.431300 0.485956
C 0.431300 0.162300 0.975100 0.485959
C 0.431300 0.975100 0.162300 0.485958
C 0.300600 0.968400 0.430400 -0.026147
C 0.968400 0.300600 0.300600 -0.026141
C 0.430400 0.300600 0.300600 -0.026152
C 0.300600 0.430400 0.968400 -0.026146
C 0.300600 0.430400 0.300600 -0.026151
C 0.968400 0.300600 0.430400 -0.026146
C 0.430400 0.300600 0.968400 -0.026147
C 0.300600 0.968400 0.300600 -0.026141
C 0.300600 0.300600 0.968400 -0.026141
C 0.968400 0.430400 0.300600 -0.026147
C 0.430400 0.968400 0.300600 -0.026147
C 0.300600 0.300600 0.430400 -0.026152
C 0.031600 0.699400 0.569600 -0.026147
C 0.699400 0.031600 0.699400 -0.026141
C 0.699400 0.569600 0.699400 -0.026152
C 0.569600 0.699400 0.031600 -0.026147
C 0.569600 0.699400 0.699400 -0.026152
C 0.699400 0.031600 0.569600 -0.026147
C 0.699400 0.569600 0.031600 -0.026147
C 0.031600 0.699400 0.699400 -0.026141
C 0.699400 0.699400 0.031600 -0.026141
C 0.569600 0.031600 0.699400 -0.026147
C 0.031600 0.569600 0.699400 -0.026146
C 0.699400 0.699400 0.569600 -0.026151
O 0.612010 0.492470 0.874250 -0.627342
O 0.492470 0.612010 0.021270 -0.627342
O 0.874250 0.021270 0.612010 -0.627341
O 0.021270 0.874250 0.492470 -0.627344
O 0.612010 0.874250 0.021270 -0.627343
O 0.492470 0.021270 0.874250 -0.627344
O 0.874250 0.612010 0.492470 -0.627342
O 0.021270 0.492470 0.612010 -0.627343
O 0.612010 0.021270 0.492470 -0.627342
O 0.492470 0.874250 0.612010 -0.627342
O 0.874250 0.492470 0.021270 -0.627345
O 0.021270 0.612010 0.874250 -0.627341
O 0.507530 0.387990 0.125750 -0.627342
O 0.387990 0.507530 0.978730 -0.627343
O 0.978730 0.125750 0.387990 -0.627342
O 0.125750 0.978730 0.507530 -0.627343
O 0.125750 0.387990 0.978730 -0.627342
O 0.978730 0.507530 0.125750 -0.627344
O 0.387990 0.125750 0.507530 -0.627341
O 0.507530 0.978730 0.387990 -0.627342
O 0.978730 0.387990 0.507530 -0.627342
O 0.125750 0.507530 0.387990 -0.627342
O 0.507530 0.125750 0.978730 -0.627344
O 0.387990 0.978730 0.125750 -0.627341
O 0.387990 0.507530 0.125750 -0.627342
O 0.507530 0.387990 0.978730 -0.627342
O 0.125750 0.978730 0.387990 -0.627341
O 0.978730 0.125750 0.507530 -0.627344
O 0.387990 0.125750 0.978730 -0.627342
O 0.507530 0.978730 0.125750 -0.627344
O 0.125750 0.387990 0.507530 -0.627341
O 0.978730 0.507530 0.387990 -0.627342
O 0.387990 0.978730 0.507530 -0.627342
O 0.507530 0.125750 0.387990 -0.627341
O 0.125750 0.507530 0.978730 -0.627344
O 0.978730 0.387990 0.125750 -0.627342
O 0.492470 0.612010 0.874250 -0.627342
O 0.612010 0.492470 0.021270 -0.627341
O 0.021270 0.874250 0.612010 -0.627342
O 0.874250 0.021270 0.492470 -0.627343
O 0.874250 0.612010 0.021270 -0.627342
O 0.021270 0.492470 0.874250 -0.627344
O 0.612010 0.874250 0.492470 -0.627342
O 0.492470 0.021270 0.612010 -0.627342
O 0.021270 0.612010 0.492470 -0.627342
O 0.874250 0.492470 0.612010 -0.627342
O 0.492470 0.874250 0.021270 -0.627344
O 0.612010 0.021270 0.874250 -0.627341
