data_KAMZUV_clean5b_PM
_symmetry_space_group_name_H-M   'P 1'
_cell_length_a 14.815300
_cell_length_b 14.815300
_cell_length_c 14.815300
_cell_angle_alpha 109.471000
_cell_angle_beta 109.471000
_cell_angle_gamma 109.471000
_symmetry_Int_Tables_number 1

loop_
_symmetry_equiv_pos_as_xyz
 'x, y, z'

loop_
_atom_site_label
_atom_site_fract_x
_atom_site_fract_y
_atom_site_fract_z
_atom_site_charge
Zn 0.250000 0.750000 0.500000 1.020909
Zn 0.750000 0.250000 0.500000 1.022304
Zn 0.500000 0.750000 0.250000 1.021212
Zn 0.500000 0.250000 0.750000 1.020433
Zn 0.750000 0.500000 0.250000 1.019692
Zn 0.250000 0.500000 0.750000 1.021020
H 0.474880 0.719110 0.578270 0.047128
H 0.525120 0.103390 0.244220 0.049991
H 0.859170 0.280890 0.755780 0.045815
H 0.755780 0.859170 0.280890 0.050979
H 0.421730 0.140830 0.896610 0.046269
H 0.578270 0.474880 0.719110 0.046847
H 0.719110 0.578270 0.474880 0.047601
H 0.896610 0.421730 0.140830 0.046660
H 0.280890 0.755780 0.859170 0.049279
H 0.103390 0.244220 0.525120 0.048679
H 0.719110 0.474880 0.578270 0.047255
H 0.280890 0.859170 0.755780 0.048537
H 0.103390 0.525120 0.244220 0.048419
H 0.140830 0.421730 0.896610 0.050228
H 0.474880 0.578270 0.719110 0.047465
H 0.525120 0.244220 0.103390 0.047716
H 0.859170 0.755780 0.280890 0.050064
H 0.244220 0.103390 0.525120 0.051044
H 0.755780 0.280890 0.859170 0.046975
H 0.578270 0.719110 0.474880 0.045697
C 0.224470 0.943730 0.500420 0.090037
C 0.443310 0.724050 0.499580 0.067430
C 0.556690 0.056270 0.280740 0.068970
C 0.775530 0.275950 0.719260 0.065954
C 0.280740 0.556690 0.056270 0.092487
C 0.719260 0.775530 0.275950 0.069412
C 0.500420 0.224470 0.943730 0.067346
C 0.499580 0.443310 0.724050 0.066172
C 0.724050 0.499580 0.443310 0.067997
C 0.943730 0.500420 0.224470 0.068777
C 0.275950 0.719260 0.775530 0.067178
C 0.056270 0.280740 0.556690 0.068412
C 0.724050 0.443310 0.499580 0.066273
C 0.943730 0.224470 0.500420 0.090477
C 0.275950 0.775530 0.719260 0.067934
C 0.056270 0.556690 0.280740 0.068760
C 0.224470 0.500420 0.943730 0.069742
C 0.443310 0.499580 0.724050 0.067110
C 0.556690 0.280740 0.056270 0.067528
C 0.775530 0.719260 0.275950 0.068723
C 0.280740 0.056270 0.556690 0.070562
C 0.719260 0.275950 0.775530 0.067920
C 0.500420 0.943730 0.224470 0.090755
C 0.499580 0.724050 0.443310 0.066989
C 0.375460 -0.000000 0.641900 0.293602
C 0.471080 -0.000000 0.720260 -0.401439
C 0.358100 0.733560 0.358100 0.293437
C 0.279740 0.750820 0.279740 -0.385291
C 0.641900 -0.000000 0.375460 0.294816
C 0.720260 0.000000 0.471080 -0.397817
C 0.624540 0.266440 0.624540 0.293997
C 0.528920 0.249180 0.528920 -0.406184
C 0.375460 0.641900 -0.000000 0.294321
C 0.471080 0.720260 -0.000000 -0.402382
C 0.624540 0.624540 0.266440 0.293899
C 0.528920 0.528920 0.249180 -0.399897
C 0.641900 0.375460 0.000000 0.293215
C 0.720260 0.471080 0.000000 -0.391357
C 0.358100 0.358100 0.733560 0.294492
C 0.279740 0.279740 0.750820 -0.400390
C 0.733560 0.358100 0.358100 0.294850
C 0.750820 0.279740 0.279740 -0.404893
C 0.000000 0.641900 0.375460 0.293471
C 0.000000 0.720260 0.471080 -0.393640
C 0.266440 0.624540 0.624540 0.295104
C 0.249180 0.528920 0.528920 -0.406616
C 0.000000 0.375460 0.641900 0.292538
C 0.000000 0.471080 0.720260 -0.397674
N 0.285710 0.907290 0.555120 -0.490969
N 0.352170 0.730590 0.444880 -0.492547
N 0.647830 0.092710 0.378420 -0.491092
N 0.714290 0.269410 0.621580 -0.490274
N 0.378420 0.647830 0.092710 -0.487913
N 0.621580 0.714290 0.269410 -0.492691
N 0.555120 0.285710 0.907290 -0.490064
N 0.444880 0.352170 0.730590 -0.494087
N 0.730590 0.444880 0.352170 -0.493750
N 0.907290 0.555120 0.285710 -0.488666
N 0.269410 0.621580 0.714290 -0.492655
N 0.092710 0.378420 0.647830 -0.491298
N 0.730590 0.352170 0.444880 -0.493048
N 0.907290 0.285710 0.555120 -0.489665
N 0.269410 0.714290 0.621580 -0.494397
N 0.092710 0.647830 0.378420 -0.486550
N 0.285710 0.555120 0.907290 -0.494480
N 0.352170 0.444880 0.730590 -0.491975
N 0.647830 0.378420 0.092710 -0.492518
N 0.714290 0.621580 0.269410 -0.493891
N 0.378420 0.092710 0.647830 -0.493865
N 0.621580 0.269410 0.714290 -0.490596
N 0.555120 0.907290 0.285710 -0.494242
N 0.444880 0.730590 0.352170 -0.487546
H 0.544940 0.034290 0.708580 0.125245
H 0.446720 0.911870 0.702710 0.114117
H 0.494120 0.053840 0.808940 0.113293
H 0.202700 0.667710 0.212320 0.112514
H 0.321840 0.790670 0.240530 0.117576
H 0.255240 0.807170 0.326920 0.119457
H 0.808840 0.052210 0.492830 0.116615
H 0.701390 0.911630 0.447400 0.113613
H 0.709990 0.036150 0.545550 0.124287
H 0.471080 0.156880 0.467910 0.128473
H 0.561110 0.291500 0.485790 0.115574
H 0.482030 0.286060 0.560510 0.115476
H 0.438890 0.730390 0.924690 0.115709
H 0.528920 0.685800 0.996830 0.127050
H 0.517970 0.804030 0.078480 0.117928
H 0.553290 0.465150 0.255990 0.113889
H 0.455060 0.489360 0.163640 0.126759
H 0.505870 0.559710 0.314810 0.113750
H 0.678160 0.468830 0.918690 0.115361
H 0.797300 0.465010 0.009630 0.109710
H 0.744760 0.551940 0.071680 0.118450
H 0.298610 0.210240 0.746000 0.114101
H 0.191160 0.243370 0.683990 0.113391
H 0.290010 0.326160 0.835560 0.125328
H 0.713020 0.273650 0.195670 0.115025
H 0.709390 0.194550 0.270420 0.116666
H 0.843150 0.311570 0.313690 0.127943
H 0.911650 0.690330 0.454810 0.113084
H 0.036040 0.806290 0.481050 0.115278
H 0.052310 0.723610 0.549920 0.122353
H 0.290610 0.485160 0.561030 0.115437
H 0.286980 0.560630 0.482650 0.115476
H 0.156850 0.468430 0.470540 0.127490
H 0.955570 0.442510 0.763520 0.112604
H 0.955570 0.503590 0.672200 0.124274
H 0.088850 0.539680 0.784500 0.114156
