data_KAMZUV_manual_PM
_symmetry_space_group_name_H-M   'P 1'
_cell_length_a 14.815300
_cell_length_b 14.815300
_cell_length_c 14.815300
_cell_angle_alpha 109.471002
_cell_angle_beta 109.471001
_cell_angle_gamma 109.470999
_symmetry_Int_Tables_number 1

loop_
_symmetry_equiv_pos_as_xyz
 'x, y, z'

loop_
_atom_site_label
_atom_site_fract_x
_atom_site_fract_y
_atom_site_fract_z
_atom_site_charge
Zn 0.250000 0.750000 0.500000 1.021837
Zn 0.750000 0.250000 0.500000 1.023237
Zn 0.500000 0.750000 0.250000 1.022140
Zn 0.500000 0.250000 0.750000 1.021359
Zn 0.750000 0.500000 0.250000 1.020615
Zn 0.250000 0.500000 0.750000 1.021950
H 0.474880 0.719110 0.578270 0.046976
H 0.525120 0.103390 0.244220 0.049833
H 0.859170 0.280890 0.755780 0.045664
H 0.755780 0.859170 0.280890 0.050821
H 0.421730 0.140830 0.896610 0.046115
H 0.578270 0.474880 0.719110 0.046693
H 0.719110 0.578270 0.474880 0.047448
H 0.896610 0.421730 0.140830 0.046510
H 0.280890 0.755780 0.859170 0.049116
H 0.103390 0.244220 0.525120 0.048519
H 0.719110 0.474880 0.578270 0.047105
H 0.280890 0.859170 0.755780 0.048386
H 0.103390 0.525120 0.244220 0.048262
H 0.140830 0.421730 0.896610 0.050073
H 0.474880 0.578270 0.719110 0.047313
H 0.525120 0.244220 0.103390 0.047561
H 0.859170 0.755780 0.280890 0.049903
H 0.244220 0.103390 0.525120 0.050885
H 0.755780 0.280890 0.859170 0.046824
H 0.578270 0.719110 0.474880 0.045544
H 0.544940 0.034290 0.708580 0.125634
H 0.446720 0.911870 0.702710 0.114547
H 0.494120 0.053840 0.808940 0.113672
H 0.202700 0.667710 0.212320 0.112850
H 0.321840 0.790670 0.240530 0.117982
H 0.255240 0.807170 0.326920 0.119857
H 0.808840 0.052210 0.492830 0.116975
H 0.701390 0.911630 0.447400 0.114045
H 0.709990 0.036150 0.545550 0.124680
H 0.471080 0.156880 0.467910 0.128859
H 0.561110 0.291500 0.485790 0.115986
H 0.482030 0.286060 0.560510 0.115892
H 0.438890 0.730390 0.924690 0.116117
H 0.528920 0.685800 0.996830 0.127440
H 0.517970 0.804030 0.078480 0.118332
H 0.553290 0.465150 0.255990 0.114320
H 0.455060 0.489360 0.163640 0.127143
H 0.505870 0.559710 0.314810 0.114127
H 0.678160 0.468830 0.918690 0.115777
H 0.797300 0.465010 0.009630 0.110059
H 0.744760 0.551940 0.071680 0.118857
H 0.298610 0.210240 0.746000 0.114533
H 0.191160 0.243370 0.683990 0.113771
H 0.290010 0.326160 0.835560 0.125719
H 0.713020 0.273650 0.195670 0.115442
H 0.709390 0.194550 0.270420 0.117074
H 0.843150 0.311570 0.313690 0.128327
H 0.911650 0.690330 0.454810 0.113513
H 0.036040 0.806290 0.481050 0.115623
H 0.052310 0.723610 0.549920 0.122750
H 0.290610 0.485160 0.561030 0.115850
H 0.286980 0.560630 0.482650 0.115891
H 0.156850 0.468430 0.470540 0.127877
H 0.955570 0.442510 0.763520 0.112974
H 0.955570 0.503590 0.672200 0.124666
H 0.088850 0.539680 0.784500 0.114584
C 0.224470 0.943730 0.500420 0.090712
C 0.443310 0.724050 0.499580 0.068163
C 0.556690 0.056270 0.280740 0.069671
C 0.775530 0.275950 0.719260 0.066680
C 0.280740 0.556690 0.056270 0.093173
C 0.719260 0.775530 0.275950 0.070151
C 0.500420 0.224470 0.943730 0.068075
C 0.499580 0.443310 0.724050 0.066901
C 0.724050 0.499580 0.443310 0.068735
C 0.943730 0.500420 0.224470 0.069513
C 0.275950 0.719260 0.775530 0.067905
C 0.056270 0.280740 0.556690 0.069113
C 0.724050 0.443310 0.499580 0.067003
C 0.943730 0.224470 0.500420 0.091155
C 0.275950 0.775530 0.719260 0.068673
C 0.056270 0.556690 0.280740 0.069492
C 0.224470 0.500420 0.943730 0.070450
C 0.443310 0.499580 0.724050 0.067844
C 0.556690 0.280740 0.056270 0.068261
C 0.775530 0.719260 0.275950 0.069459
C 0.280740 0.056270 0.556690 0.071274
C 0.719260 0.275950 0.775530 0.068659
C 0.500420 0.943730 0.224470 0.091434
C 0.499580 0.724050 0.443310 0.067716
C 0.375460 0.000000 0.641900 0.296338
C 0.471080 0.000000 0.720260 -0.403550
C 0.358100 0.733560 0.358100 0.296140
C 0.279740 0.750820 0.279740 -0.387380
C 0.641900 0.000000 0.375460 0.297550
C 0.720260 0.000000 0.471080 -0.399931
C 0.624540 0.266440 0.624540 0.296727
C 0.528920 0.249180 0.528920 -0.408319
C 0.375460 0.641900 0.000000 0.297053
C 0.471080 0.720260 0.000000 -0.404519
C 0.624540 0.624540 0.266440 0.296634
C 0.528920 0.528920 0.249180 -0.402018
C 0.641900 0.375460 0.000000 0.295929
C 0.720260 0.471080 0.000000 -0.393439
C 0.358100 0.358100 0.733560 0.297228
C 0.279740 0.279740 0.750820 -0.402507
C 0.733560 0.358100 0.358100 0.297596
C 0.750820 0.279740 0.279740 -0.407037
C 0.000000 0.641900 0.375460 0.296170
C 0.000000 0.720260 0.471080 -0.395738
C 0.266440 0.624540 0.624540 0.297852
C 0.249180 0.528920 0.528920 -0.408758
C 0.000000 0.375460 0.641900 0.295259
C 0.000000 0.471080 0.720260 -0.399770
N 0.285710 0.907290 0.555120 -0.492717
N 0.352170 0.730590 0.444880 -0.494267
N 0.647830 0.092710 0.378420 -0.492809
N 0.714290 0.269410 0.621580 -0.491977
N 0.378420 0.647830 0.092710 -0.489667
N 0.621580 0.714290 0.269410 -0.494413
N 0.555120 0.285710 0.907290 -0.491773
N 0.444880 0.352170 0.730590 -0.495825
N 0.730590 0.444880 0.352170 -0.495489
N 0.907290 0.555120 0.285710 -0.490368
N 0.269410 0.621580 0.714290 -0.494384
N 0.092710 0.378420 0.647830 -0.492995
N 0.730590 0.352170 0.444880 -0.494773
N 0.907290 0.285710 0.555120 -0.491397
N 0.269410 0.714290 0.621580 -0.496134
N 0.092710 0.647830 0.378420 -0.488252
N 0.285710 0.555120 0.907290 -0.496202
N 0.352170 0.444880 0.730590 -0.493690
N 0.647830 0.378420 0.092710 -0.494239
N 0.714290 0.621580 0.269410 -0.495629
N 0.378420 0.092710 0.647830 -0.495582
N 0.621580 0.269410 0.714290 -0.492309
N 0.555120 0.907290 0.285710 -0.496013
N 0.444880 0.730590 0.352170 -0.489257
