data_LICGOW_PM
_symmetry_space_group_name_H-M   'P 1'
_cell_length_a 39.267900
_cell_length_b 39.267900
_cell_length_c 16.566600
_cell_angle_alpha 90.000000
_cell_angle_beta 90.000000
_cell_angle_gamma 120.000000
_symmetry_Int_Tables_number 1

loop_
_symmetry_equiv_pos_as_xyz
 'x, y, z'

loop_
_atom_site_label
_atom_site_fract_x
_atom_site_fract_y
_atom_site_fract_z
_atom_site_charge
C 0.492430 0.093620 0.133500 0.620789
C 0.492060 0.125360 0.183700 0.031646
C 0.462500 0.115630 0.240300 0.007238
H 0.442490 0.089670 0.246260 0.114162
C 0.463000 0.145060 0.288200 -0.172755
H 0.443250 0.138430 0.326250 0.106829
C 0.492000 0.183610 0.280200 0.059101
C 0.520900 0.192930 0.223000 -0.184688
H 0.540510 0.218980 0.216170 0.099647
C 0.521000 0.163800 0.175300 0.002506
H 0.540860 0.170490 0.137520 0.100232
C 0.492500 0.183890 0.459300 -0.103934
H 0.493210 0.163500 0.432090 0.098331
C 0.491600 0.214140 0.413500 0.018715
C 0.491100 0.245550 0.456100 0.011223
C 0.493200 0.215920 0.329200 0.022719
C 0.493400 0.246710 0.289800 -0.169965
H 0.493710 0.246850 0.233670 0.109239
O 0.466730 0.059260 0.148200 -0.661943
O 0.518880 0.105210 0.080970 -0.688047
O 0.471560 0.036020 -0.000000 -1.254042
O 0.517500 0.034990 0.107400 -1.352639
O 0.399150 0.000000 0.097400 -0.367399
O 0.458470 0.000000 0.238600 -0.375583
Zr 0.535990 0.071980 0.000000 2.996638
Zr 0.454970 0.000000 0.106710 2.959611
C 0.906380 0.398810 0.133500 0.620789
C 0.601190 0.507570 0.133500 0.620789
C 0.507570 0.906380 0.133500 0.620789
C 0.093620 0.601190 0.133500 0.620789
C 0.398810 0.492430 0.133500 0.620789
C 0.093620 0.492430 0.866500 0.620789
C 0.398810 0.906380 0.866500 0.620789
C 0.507570 0.601190 0.866500 0.620789
C 0.906380 0.507570 0.866500 0.620789
C 0.601190 0.093620 0.866500 0.620789
C 0.492430 0.398810 0.866500 0.620789
C 0.507570 0.906380 0.866500 0.620774
C 0.093620 0.601190 0.866500 0.620774
C 0.398810 0.492430 0.866500 0.620774
C 0.492430 0.093620 0.866500 0.620774
C 0.906380 0.398810 0.866500 0.620774
C 0.601190 0.507570 0.866500 0.620774
C 0.906380 0.507570 0.133500 0.620774
C 0.601190 0.093620 0.133500 0.620774
C 0.492430 0.398810 0.133500 0.620774
C 0.093620 0.492430 0.133500 0.620773
C 0.398810 0.906380 0.133500 0.620774
C 0.507570 0.601190 0.133500 0.620774
C 0.874640 0.366700 0.183700 0.031646
C 0.633300 0.507940 0.183700 0.031646
C 0.507940 0.874640 0.183700 0.031646
C 0.125360 0.633300 0.183700 0.031646
C 0.366700 0.492060 0.183700 0.031646
C 0.125360 0.492060 0.816300 0.031646
C 0.366700 0.874640 0.816300 0.031646
C 0.507940 0.633300 0.816300 0.031646
C 0.874640 0.507940 0.816300 0.031646
C 0.633300 0.125360 0.816300 0.031646
C 0.492060 0.366700 0.816300 0.031646
C 0.507940 0.874640 0.816300 0.031642
C 0.125360 0.633300 0.816300 0.031642
C 0.366700 0.492060 0.816300 0.031642
C 0.492060 0.125360 0.816300 0.031642
C 0.874640 0.366700 0.816300 0.031642
C 0.633300 0.507940 0.816300 0.031642
C 0.874640 0.507940 0.183700 0.031642
C 0.633300 0.125360 0.183700 0.031642
C 0.492060 0.366700 0.183700 0.031642
C 0.125360 0.492060 0.183700 0.031642
C 0.366700 0.874640 0.183700 0.031642
C 0.507940 0.633300 0.183700 0.031642
C 0.884370 0.346870 0.240300 0.007239
C 0.653130 0.537500 0.240300 0.007239
C 0.537500 0.884370 0.240300 0.007239
C 0.115630 0.653130 0.240300 0.007238
C 0.346870 0.462500 0.240300 0.007239
C 0.115630 0.462500 0.759700 0.007238
C 0.346870 0.884370 0.759700 0.007239
C 0.537500 0.653130 0.759700 0.007238
C 0.884370 0.537500 0.759700 0.007239
C 0.653130 0.115630 0.759700 0.007239
C 0.462500 0.346870 0.759700 0.007239
C 0.537500 0.884370 0.759700 0.007236
C 0.115630 0.653130 0.759700 0.007236
C 0.346870 0.462500 0.759700 0.007236
C 0.462500 0.115630 0.759700 0.007236
C 0.884370 0.346870 0.759700 0.007236
C 0.653130 0.537500 0.759700 0.007236
C 0.884370 0.537500 0.240300 0.007236
C 0.653130 0.115630 0.240300 0.007237
C 0.462500 0.346870 0.240300 0.007236
C 0.115630 0.462500 0.240300 0.007236
C 0.346870 0.884370 0.240300 0.007236
C 0.537500 0.653130 0.240300 0.007236
H 0.910330 0.352820 0.246260 0.114162
H 0.647180 0.557510 0.246260 0.114162
H 0.557510 0.910330 0.246260 0.114162
H 0.089670 0.647180 0.246260 0.114162
H 0.352820 0.442490 0.246260 0.114162
H 0.089670 0.442490 0.753740 0.114162
H 0.352820 0.910330 0.753740 0.114162
H 0.557510 0.647180 0.753740 0.114162
H 0.910330 0.557510 0.753740 0.114162
H 0.647180 0.089670 0.753740 0.114162
H 0.442490 0.352820 0.753740 0.114162
H 0.557510 0.910330 0.753740 0.114159
H 0.089670 0.647180 0.753740 0.114159
H 0.352820 0.442490 0.753740 0.114159
H 0.442490 0.089670 0.753740 0.114159
H 0.910330 0.352820 0.753740 0.114159
H 0.647180 0.557510 0.753740 0.114159
H 0.910330 0.557510 0.246260 0.114159
H 0.647180 0.089670 0.246260 0.114159
H 0.442490 0.352820 0.246260 0.114159
H 0.089670 0.442490 0.246260 0.114159
H 0.352820 0.910330 0.246260 0.114159
H 0.557510 0.647180 0.246260 0.114159
C 0.854940 0.317940 0.288200 -0.172752
C 0.682060 0.537000 0.288200 -0.172752
C 0.537000 0.854940 0.288200 -0.172752
C 0.145060 0.682060 0.288200 -0.172752
C 0.317940 0.463000 0.288200 -0.172752
C 0.145060 0.463000 0.711800 -0.172755
C 0.317940 0.854940 0.711800 -0.172752
C 0.537000 0.682060 0.711800 -0.172755
C 0.854940 0.537000 0.711800 -0.172752
C 0.682060 0.145060 0.711800 -0.172757
C 0.463000 0.317940 0.711800 -0.172752
C 0.537000 0.854940 0.711800 -0.172751
C 0.145060 0.682060 0.711800 -0.172754
C 0.317940 0.463000 0.711800 -0.172751
C 0.463000 0.145060 0.711800 -0.172754
C 0.854940 0.317940 0.711800 -0.172752
C 0.682060 0.537000 0.711800 -0.172751
C 0.854940 0.537000 0.288200 -0.172751
C 0.682060 0.145060 0.288200 -0.172757
C 0.463000 0.317940 0.288200 -0.172751
C 0.145060 0.463000 0.288200 -0.172754
C 0.317940 0.854940 0.288200 -0.172749
C 0.537000 0.682060 0.288200 -0.172754
H 0.861570 0.304820 0.326250 0.106829
H 0.695180 0.556750 0.326250 0.106829
H 0.556750 0.861570 0.326250 0.106829
H 0.138430 0.695180 0.326250 0.106829
H 0.304820 0.443250 0.326250 0.106830
H 0.138430 0.443250 0.673750 0.106829
H 0.304820 0.861570 0.673750 0.106830
H 0.556750 0.695180 0.673750 0.106829
H 0.861570 0.556750 0.673750 0.106830
H 0.695180 0.138430 0.673750 0.106827
H 0.443250 0.304820 0.673750 0.106829
H 0.556750 0.861570 0.673750 0.106830
H 0.138430 0.695180 0.673750 0.106829
H 0.304820 0.443250 0.673750 0.106830
H 0.443250 0.138430 0.673750 0.106829
H 0.861570 0.304820 0.673750 0.106829
H 0.695180 0.556750 0.673750 0.106830
H 0.861570 0.556750 0.326250 0.106830
H 0.695180 0.138430 0.326250 0.106827
H 0.443250 0.304820 0.326250 0.106830
H 0.138430 0.443250 0.326250 0.106829
H 0.304820 0.861570 0.326250 0.106830
H 0.556750 0.695180 0.326250 0.106829
C 0.816390 0.308390 0.280200 0.059102
C 0.691610 0.508000 0.280200 0.059100
C 0.508000 0.816390 0.280200 0.059102
C 0.183610 0.691610 0.280200 0.059103
C 0.308390 0.492000 0.280200 0.059102
C 0.183610 0.492000 0.719800 0.059102
C 0.308390 0.816390 0.719800 0.059102
C 0.508000 0.691610 0.719800 0.059101
C 0.816390 0.508000 0.719800 0.059102
C 0.691610 0.183610 0.719800 0.059104
C 0.492000 0.308390 0.719800 0.059100
C 0.508000 0.816390 0.719800 0.059106
C 0.183610 0.691610 0.719800 0.059105
C 0.308390 0.492000 0.719800 0.059106
C 0.492000 0.183610 0.719800 0.059107
C 0.816390 0.308390 0.719800 0.059104
C 0.691610 0.508000 0.719800 0.059104
C 0.816390 0.508000 0.280200 0.059106
C 0.691610 0.183610 0.280200 0.059106
C 0.492000 0.308390 0.280200 0.059106
C 0.183610 0.492000 0.280200 0.059105
C 0.308390 0.816390 0.280200 0.059106
C 0.508000 0.691610 0.280200 0.059105
C 0.807070 0.327970 0.223000 -0.184681
C 0.672030 0.479100 0.223000 -0.184688
C 0.479100 0.807070 0.223000 -0.184681
C 0.192930 0.672030 0.223000 -0.184688
C 0.327970 0.520900 0.223000 -0.184681
C 0.192930 0.520900 0.777000 -0.184689
C 0.327970 0.807070 0.777000 -0.184681
C 0.479100 0.672030 0.777000 -0.184689
C 0.807070 0.479100 0.777000 -0.184681
C 0.672030 0.192930 0.777000 -0.184679
C 0.520900 0.327970 0.777000 -0.184688
C 0.479100 0.807070 0.777000 -0.184672
C 0.192930 0.672030 0.777000 -0.184680
C 0.327970 0.520900 0.777000 -0.184672
C 0.520900 0.192930 0.777000 -0.184672
C 0.807070 0.327970 0.777000 -0.184678
C 0.672030 0.479100 0.777000 -0.184679
C 0.807070 0.479100 0.223000 -0.184672
C 0.672030 0.192930 0.223000 -0.184676
C 0.520900 0.327970 0.223000 -0.184672
C 0.192930 0.520900 0.223000 -0.184680
C 0.327970 0.807070 0.223000 -0.184678
C 0.479100 0.672030 0.223000 -0.184680
H 0.781020 0.321530 0.216170 0.099647
H 0.678470 0.459490 0.216170 0.099646
H 0.459490 0.781020 0.216170 0.099647
H 0.218980 0.678470 0.216170 0.099645
H 0.321530 0.540510 0.216170 0.099647
H 0.218980 0.540510 0.783830 0.099646
H 0.321530 0.781020 0.783830 0.099647
H 0.459490 0.678470 0.783830 0.099646
H 0.781020 0.459490 0.783830 0.099647
H 0.678470 0.218980 0.783830 0.099646
H 0.540510 0.321530 0.783830 0.099646
H 0.459490 0.781020 0.783830 0.099647
H 0.218980 0.678470 0.783830 0.099647
H 0.321530 0.540510 0.783830 0.099647
H 0.540510 0.218980 0.783830 0.099647
H 0.781020 0.321530 0.783830 0.099647
H 0.678470 0.459490 0.783830 0.099647
H 0.781020 0.459490 0.216170 0.099647
H 0.678470 0.218980 0.216170 0.099647
H 0.540510 0.321530 0.216170 0.099647
H 0.218980 0.540510 0.216170 0.099647
H 0.321530 0.781020 0.216170 0.099645
H 0.459490 0.678470 0.216170 0.099647
C 0.836200 0.357200 0.175300 0.002505
C 0.642800 0.479000 0.175300 0.002506
C 0.479000 0.836200 0.175300 0.002505
C 0.163800 0.642800 0.175300 0.002506
C 0.357200 0.521000 0.175300 0.002505
C 0.163800 0.521000 0.824700 0.002506
C 0.357200 0.836200 0.824700 0.002505
C 0.479000 0.642800 0.824700 0.002506
C 0.836200 0.479000 0.824700 0.002505
C 0.642800 0.163800 0.824700 0.002504
C 0.521000 0.357200 0.824700 0.002506
C 0.479000 0.836200 0.824700 0.002502
C 0.163800 0.642800 0.824700 0.002504
C 0.357200 0.521000 0.824700 0.002502
C 0.521000 0.163800 0.824700 0.002502
C 0.836200 0.357200 0.824700 0.002504
C 0.642800 0.479000 0.824700 0.002504
C 0.836200 0.479000 0.175300 0.002502
C 0.642800 0.163800 0.175300 0.002503
C 0.521000 0.357200 0.175300 0.002502
C 0.163800 0.521000 0.175300 0.002504
C 0.357200 0.836200 0.175300 0.002504
C 0.479000 0.642800 0.175300 0.002504
H 0.829510 0.370370 0.137520 0.100231
H 0.629630 0.459140 0.137520 0.100231
H 0.459140 0.829510 0.137520 0.100231
H 0.170490 0.629630 0.137520 0.100231
H 0.370370 0.540860 0.137520 0.100231
H 0.170490 0.540860 0.862480 0.100231
H 0.370370 0.829510 0.862480 0.100231
H 0.459140 0.629630 0.862480 0.100231
H 0.829510 0.459140 0.862480 0.100231
H 0.629630 0.170490 0.862480 0.100231
H 0.540860 0.370370 0.862480 0.100232
H 0.459140 0.829510 0.862480 0.100230
H 0.170490 0.629630 0.862480 0.100230
H 0.370370 0.540860 0.862480 0.100230
H 0.540860 0.170490 0.862480 0.100230
H 0.829510 0.370370 0.862480 0.100230
H 0.629630 0.459140 0.862480 0.100230
H 0.829510 0.459140 0.137520 0.100230
H 0.629630 0.170490 0.137520 0.100230
H 0.540860 0.370370 0.137520 0.100230
H 0.170490 0.540860 0.137520 0.100230
H 0.370370 0.829510 0.137520 0.100230
H 0.459140 0.629630 0.137520 0.100230
C 0.816110 0.308610 0.459300 -0.103984
C 0.691390 0.507500 0.459300 -0.103983
C 0.507500 0.816110 0.459300 -0.103983
C 0.183890 0.691390 0.459300 -0.103936
C 0.308610 0.492500 0.459300 -0.103983
C 0.183890 0.492500 0.540700 -0.103935
C 0.308610 0.816110 0.540700 -0.103983
C 0.507500 0.691390 0.540700 -0.103935
C 0.816110 0.507500 0.540700 -0.103983
C 0.691390 0.183890 0.540700 -0.103959
C 0.492500 0.308610 0.540700 -0.103982
C 0.507500 0.816110 0.540700 -0.103989
C 0.183890 0.691390 0.540700 -0.103940
C 0.308610 0.492500 0.540700 -0.103989
C 0.492500 0.183890 0.540700 -0.103941
C 0.816110 0.308610 0.540700 -0.103988
C 0.691390 0.507500 0.540700 -0.103989
C 0.816110 0.507500 0.459300 -0.103989
C 0.691390 0.183890 0.459300 -0.103964
C 0.492500 0.308610 0.459300 -0.103989
C 0.183890 0.492500 0.459300 -0.103941
C 0.308610 0.816110 0.459300 -0.103989
C 0.507500 0.691390 0.459300 -0.103941
H 0.836490 0.329700 0.432090 0.098363
H 0.670300 0.506790 0.432090 0.098363
H 0.506790 0.836490 0.432090 0.098362
H 0.163500 0.670290 0.432090 0.098331
H 0.329700 0.493210 0.432090 0.098362
H 0.163500 0.493210 0.567910 0.098331
H 0.329700 0.836490 0.567910 0.098362
H 0.506790 0.670290 0.567910 0.098331
H 0.836490 0.506790 0.567910 0.098362
H 0.670300 0.163500 0.567910 0.098346
H 0.493210 0.329700 0.567910 0.098363
H 0.506790 0.836490 0.567910 0.098363
H 0.163500 0.670290 0.567910 0.098331
H 0.329700 0.493210 0.567910 0.098363
H 0.493210 0.163500 0.567910 0.098332
H 0.836490 0.329700 0.567910 0.098363
H 0.670300 0.506790 0.567910 0.098363
H 0.836490 0.506790 0.432090 0.098363
H 0.670300 0.163500 0.432090 0.098347
H 0.493210 0.329700 0.432090 0.098363
H 0.163500 0.493210 0.432090 0.098331
H 0.329700 0.836490 0.432090 0.098363
H 0.506790 0.670290 0.432090 0.098332
C 0.785860 0.277460 0.413500 0.018723
C 0.722540 0.508400 0.413500 0.018723
C 0.508400 0.785860 0.413500 0.018723
C 0.214140 0.722540 0.413500 0.018715
C 0.277460 0.491600 0.413500 0.018723
C 0.214140 0.491600 0.586500 0.018715
C 0.277460 0.785860 0.586500 0.018723
C 0.508400 0.722540 0.586500 0.018715
C 0.785860 0.508400 0.586500 0.018722
C 0.722540 0.214140 0.586500 0.018719
C 0.491600 0.277460 0.586500 0.018723
C 0.508400 0.785860 0.586500 0.018722
C 0.214140 0.722540 0.586500 0.018715
C 0.277460 0.491600 0.586500 0.018722
C 0.491600 0.214140 0.586500 0.018715
C 0.785860 0.277460 0.586500 0.018722
C 0.722540 0.508400 0.586500 0.018722
C 0.785860 0.508400 0.413500 0.018722
C 0.722540 0.214140 0.413500 0.018719
C 0.491600 0.277460 0.413500 0.018722
C 0.214140 0.491600 0.413500 0.018715
C 0.277460 0.785860 0.413500 0.018722
C 0.508400 0.722540 0.413500 0.018715
C 0.754450 0.245550 0.456100 0.011224
C 0.754450 0.508900 0.456100 0.011225
C 0.508900 0.754450 0.456100 0.011223
C 0.245550 0.754450 0.456100 0.011223
C 0.245550 0.491100 0.456100 0.011223
C 0.245550 0.491100 0.543900 0.011223
C 0.245550 0.754450 0.543900 0.011223
C 0.508900 0.754450 0.543900 0.011223
C 0.754450 0.508900 0.543900 0.011225
C 0.754450 0.245550 0.543900 0.011224
C 0.491100 0.245550 0.543900 0.011223
C 0.784080 0.277280 0.329200 0.022723
C 0.722720 0.506800 0.329200 0.022718
C 0.506800 0.784080 0.329200 0.022723
C 0.215920 0.722720 0.329200 0.022720
C 0.277280 0.493200 0.329200 0.022723
C 0.215920 0.493200 0.670800 0.022719
C 0.277280 0.784080 0.670800 0.022723
C 0.506800 0.722720 0.670800 0.022719
C 0.784080 0.506800 0.670800 0.022723
C 0.722720 0.215920 0.670800 0.022724
C 0.493200 0.277280 0.670800 0.022718
C 0.506800 0.784080 0.670800 0.022764
C 0.215920 0.722720 0.670800 0.022760
C 0.277280 0.493200 0.670800 0.022764
C 0.493200 0.215920 0.670800 0.022765
C 0.784080 0.277280 0.670800 0.022759
C 0.722720 0.506800 0.670800 0.022759
C 0.784080 0.506800 0.329200 0.022764
C 0.722720 0.215920 0.329200 0.022760
C 0.493200 0.277280 0.329200 0.022764
C 0.215920 0.493200 0.329200 0.022760
C 0.277280 0.784080 0.329200 0.022760
C 0.506800 0.722720 0.329200 0.022760
C 0.753290 0.246690 0.289800 -0.169965
C 0.753310 0.506600 0.289800 -0.169965
C 0.506600 0.753290 0.289800 -0.169965
C 0.246710 0.753310 0.289800 -0.169956
C 0.246690 0.493400 0.289800 -0.169965
C 0.246710 0.493400 0.710200 -0.169965
C 0.246690 0.753290 0.710200 -0.169965
C 0.506600 0.753310 0.710200 -0.169965
C 0.753290 0.506600 0.710200 -0.169965
C 0.753310 0.246710 0.710200 -0.169965
C 0.493400 0.246690 0.710200 -0.169965
H 0.753140 0.246850 0.233670 0.109239
H 0.753140 0.506290 0.233670 0.109239
H 0.506290 0.753140 0.233670 0.109239
H 0.246860 0.753140 0.233670 0.109234
H 0.246850 0.493710 0.233670 0.109239
H 0.246850 0.493710 0.766330 0.109239
H 0.246850 0.753140 0.766330 0.109239
H 0.506290 0.753140 0.766330 0.109239
H 0.753140 0.506290 0.766330 0.109239
H 0.753150 0.246860 0.766330 0.109239
H 0.493710 0.246860 0.766330 0.109239
O 0.940740 0.407470 0.148200 -0.661943
O 0.592530 0.533270 0.148200 -0.661943
O 0.533270 0.940740 0.148200 -0.661943
O 0.059260 0.592530 0.148200 -0.661943
O 0.407470 0.466730 0.148200 -0.661943
O 0.059260 0.466730 0.851800 -0.661943
O 0.407470 0.940740 0.851800 -0.661943
O 0.533270 0.592530 0.851800 -0.661943
O 0.940740 0.533270 0.851800 -0.661943
O 0.592530 0.059260 0.851800 -0.661943
O 0.466730 0.407470 0.851800 -0.661943
O 0.533270 0.940740 0.851800 -0.661864
O 0.059260 0.592530 0.851800 -0.661864
O 0.407470 0.466730 0.851800 -0.661864
O 0.466730 0.059260 0.851800 -0.661864
O 0.940740 0.407470 0.851800 -0.661864
O 0.592530 0.533270 0.851800 -0.661864
O 0.940740 0.533270 0.148200 -0.661864
O 0.592530 0.059260 0.148200 -0.661864
O 0.466730 0.407470 0.148200 -0.661864
O 0.059260 0.466730 0.148200 -0.661864
O 0.407470 0.940740 0.148200 -0.661864
O 0.533270 0.592530 0.148200 -0.661864
O 0.894790 0.413670 0.080970 -0.688047
O 0.586330 0.481120 0.080970 -0.688047
O 0.481120 0.894790 0.080970 -0.688047
O 0.105210 0.586330 0.080970 -0.688047
O 0.413670 0.518880 0.080970 -0.688047
O 0.105210 0.518880 0.919030 -0.688047
O 0.413670 0.894790 0.919030 -0.688047
O 0.481120 0.586330 0.919030 -0.688047
O 0.894790 0.481120 0.919030 -0.688047
O 0.586330 0.105210 0.919030 -0.688047
O 0.518880 0.413670 0.919030 -0.688047
O 0.481120 0.894790 0.919030 -0.688009
O 0.105210 0.586330 0.919030 -0.688009
O 0.413670 0.518880 0.919030 -0.688009
O 0.518880 0.105210 0.919030 -0.688009
O 0.894790 0.413670 0.919030 -0.688009
O 0.586330 0.481120 0.919030 -0.688009
O 0.894790 0.481120 0.080970 -0.688009
O 0.586330 0.105210 0.080970 -0.688009
O 0.518880 0.413670 0.080970 -0.688009
O 0.105210 0.518880 0.080970 -0.688009
O 0.413670 0.894790 0.080970 -0.688009
O 0.481120 0.586330 0.080970 -0.688009
O 0.963980 0.435540 -0.000000 -1.254042
O 0.564460 0.528440 -0.000000 -1.254042
O 0.528440 0.963980 -0.000000 -1.254042
O 0.036020 0.564460 -0.000000 -1.254041
O 0.435540 0.471560 0.000000 -1.254042
O 0.036020 0.471560 -0.000000 -1.254041
O 0.435540 0.963980 -0.000000 -1.254042
O 0.528440 0.564460 0.000000 -1.254041
O 0.963980 0.528440 -0.000000 -1.254042
O 0.564460 0.036020 -0.000000 -1.254042
O 0.471560 0.435540 -0.000000 -1.254042
O 0.965010 0.482510 0.107400 -1.352639
O 0.517490 0.482500 0.107400 -1.352639
O 0.482500 0.965010 0.107400 -1.352639
O 0.034990 0.517490 0.107400 -1.352640
O 0.482510 0.517500 0.107400 -1.352639
O 0.034990 0.517500 0.892600 -1.352640
O 0.482510 0.965010 0.892600 -1.352639
O 0.482500 0.517490 0.892600 -1.352639
O 0.965010 0.482500 0.892600 -1.352639
O 0.517490 0.034990 0.892600 -1.352639
O 0.517500 0.482510 0.892600 -1.352639
O 0.000000 0.399150 0.097400 -0.367399
O 0.600850 0.600850 0.097400 -0.367399
O 0.600850 0.000000 0.097400 -0.367399
O 0.000000 0.600850 0.097400 -0.367399
O 0.399150 0.399150 0.097400 -0.367399
O 0.000000 0.399150 0.902600 -0.367399
O 0.399150 0.000000 0.902600 -0.367399
O 0.600850 0.600850 0.902600 -0.367399
O 0.000000 0.600850 0.902600 -0.367399
O 0.600850 0.000000 0.902600 -0.367399
O 0.399150 0.399150 0.902600 -0.367399
O 0.000000 0.458470 0.238600 -0.375584
O 0.541530 0.541530 0.238600 -0.375583
O 0.541530 0.000000 0.238600 -0.375583
O 0.000000 0.541530 0.238600 -0.375584
O 0.458470 0.458470 0.238600 -0.375583
O 0.000000 0.458470 0.761400 -0.375584
O 0.458470 0.000000 0.761400 -0.375583
O 0.541530 0.541530 0.761400 -0.375583
O 0.000000 0.541530 0.761400 -0.375584
O 0.541530 0.000000 0.761400 -0.375583
O 0.458470 0.458470 0.761400 -0.375583
Zr 0.928020 0.464010 -0.000000 2.996638
Zr 0.535990 0.464010 0.000000 2.996638
Zr 0.464010 0.928020 -0.000000 2.996638
Zr 0.071980 0.535990 -0.000000 2.996638
Zr 0.464010 0.535990 -0.000000 2.996638
Zr 0.000000 0.454970 0.106710 2.959611
Zr 0.545030 0.545030 0.106710 2.959611
Zr 0.545030 0.000000 0.106710 2.959611
Zr 0.000000 0.545030 0.106710 2.959611
Zr 0.454970 0.454970 0.106710 2.959611
Zr 0.000000 0.454970 0.893290 2.959611
Zr 0.454970 0.000000 0.893290 2.959611
Zr 0.545030 0.545030 0.893290 2.959611
Zr 0.000000 0.545030 0.893290 2.959611
Zr 0.545030 0.000000 0.893290 2.959611
Zr 0.454970 0.454970 0.893290 2.959611
