data_VEJYUF01_clean_PM
_symmetry_space_group_name_H-M   'P 1'
_cell_length_a 15.379000
_cell_length_b 15.449000
_cell_length_c 18.407000
_cell_angle_alpha 90.000000
_cell_angle_beta 90.000000
_cell_angle_gamma 90.000000
_symmetry_Int_Tables_number 1

loop_
_symmetry_equiv_pos_as_xyz
 'x, y, z'

loop_
_atom_site_label
_atom_site_fract_x
_atom_site_fract_y
_atom_site_fract_z
_atom_site_charge
Zn 0.799480 0.860370 0.593860 1.018341
Zn 0.491210 0.664180 0.684660 1.020924
Zn 0.700520 0.139630 0.093860 1.018341
Zn 0.008790 0.335820 0.184660 1.020924
Zn 0.200520 0.360370 0.906140 1.018341
Zn 0.508790 0.164180 0.815340 1.020924
Zn 0.299480 0.639630 0.406140 1.018341
Zn 0.991210 0.835820 0.315340 1.020924
Zn 0.200520 0.139630 0.406140 1.018341
Zn 0.508790 0.335820 0.315340 1.020924
Zn 0.299480 0.860370 0.906140 1.018341
Zn 0.991210 0.664180 0.815340 1.020924
Zn 0.799480 0.639630 0.093860 1.018341
Zn 0.491210 0.835820 0.184660 1.020924
Zn 0.700520 0.360370 0.593860 1.018341
Zn 0.008790 0.164180 0.684660 1.020924
H 0.678800 0.719400 0.653200 0.072882
H 0.603600 0.941200 0.575700 0.045437
H 0.474500 0.860900 0.614100 0.049704
H 0.936800 0.811600 0.477700 0.065606
H 0.733000 0.951800 0.445400 0.048821
H 0.811700 0.939100 0.332000 0.053808
H 0.936700 0.009700 0.595200 0.068510
H 0.763600 0.964000 0.742800 0.055446
H 0.857600 0.078800 0.786700 0.053465
H 0.901800 0.811300 0.730200 0.064812
H 0.941500 0.578100 0.659900 0.053660
H 0.863300 0.657400 0.565800 0.052338
H 0.821200 0.280600 0.153200 0.072882
H 0.896400 0.058800 0.075700 0.045437
H 0.025500 0.139100 0.114100 0.049704
H 0.563200 0.188400 0.977700 0.065606
H 0.767000 0.048200 0.945400 0.048821
H 0.688300 0.060900 0.832000 0.053808
H 0.563300 0.990300 0.095200 0.068510
H 0.736400 0.036000 0.242800 0.055446
H 0.642400 0.921200 0.286700 0.053465
H 0.598200 0.188700 0.230200 0.064812
H 0.558500 0.421900 0.159900 0.053660
H 0.636700 0.342600 0.065800 0.052338
H 0.321200 0.219400 0.846800 0.072882
H 0.396400 0.441200 0.924300 0.045437
H 0.525500 0.360900 0.885900 0.049704
H 0.063200 0.311600 0.022300 0.065606
H 0.267000 0.451800 0.054600 0.048821
H 0.188300 0.439100 0.168000 0.053808
H 0.063300 0.509700 0.904800 0.068510
H 0.236400 0.464000 0.757200 0.055446
H 0.142400 0.578800 0.713300 0.053465
H 0.098200 0.311300 0.769800 0.064812
H 0.058500 0.078100 0.840100 0.053660
H 0.136700 0.157400 0.934200 0.052338
H 0.178800 0.780600 0.346800 0.072882
H 0.103600 0.558800 0.424300 0.045437
H 0.974500 0.639100 0.385900 0.049704
H 0.436800 0.688400 0.522300 0.065606
H 0.233000 0.548200 0.554600 0.048821
H 0.311700 0.560900 0.668000 0.053808
H 0.436700 0.490300 0.404800 0.068510
H 0.263600 0.536000 0.257200 0.055446
H 0.357600 0.421200 0.213300 0.053465
H 0.401800 0.688700 0.269800 0.064812
H 0.441500 0.921900 0.340100 0.053660
H 0.363300 0.842600 0.434200 0.052338
H 0.321200 0.280600 0.346800 0.072882
H 0.396400 0.058800 0.424300 0.045437
H 0.525500 0.139100 0.385900 0.049704
H 0.063200 0.188400 0.522300 0.065606
H 0.267000 0.048200 0.554600 0.048821
H 0.188300 0.060900 0.668000 0.053808
H 0.063300 0.990300 0.404800 0.068510
H 0.236400 0.036000 0.257200 0.055446
H 0.142400 0.921200 0.213300 0.053465
H 0.098200 0.188700 0.269800 0.064812
H 0.058500 0.421900 0.340100 0.053660
H 0.136700 0.342600 0.434200 0.052338
H 0.178800 0.719400 0.846800 0.072882
H 0.103600 0.941200 0.924300 0.045437
H 0.974500 0.860900 0.885900 0.049704
H 0.436800 0.811600 0.022300 0.065606
H 0.233000 0.951800 0.054600 0.048821
H 0.311700 0.939100 0.168000 0.053808
H 0.436700 0.009700 0.904800 0.068510
H 0.263600 0.964000 0.757200 0.055446
H 0.357600 0.078800 0.713300 0.053465
H 0.401800 0.811300 0.769800 0.064812
H 0.441500 0.578100 0.840100 0.053660
H 0.363300 0.657400 0.934200 0.052338
H 0.678800 0.780600 0.153200 0.072882
H 0.603600 0.558800 0.075700 0.045437
H 0.474500 0.639100 0.114100 0.049704
H 0.936800 0.688400 0.977700 0.065606
H 0.733000 0.548200 0.945400 0.048821
H 0.811700 0.560900 0.832000 0.053808
H 0.936700 0.490300 0.095200 0.068510
H 0.763600 0.536000 0.242800 0.055446
H 0.857600 0.421200 0.286700 0.053465
H 0.901800 0.688700 0.230200 0.064812
H 0.941500 0.921900 0.159900 0.053660
H 0.863300 0.842600 0.065800 0.052338
H 0.821200 0.219400 0.653200 0.072882
H 0.896400 0.441200 0.575700 0.045437
H 0.025500 0.360900 0.614100 0.049704
H 0.563200 0.311600 0.477700 0.065606
H 0.767000 0.451800 0.445400 0.048821
H 0.688300 0.439100 0.332000 0.053808
H 0.563300 0.509700 0.595200 0.068510
H 0.736400 0.464000 0.742800 0.055446
H 0.642400 0.578800 0.786700 0.053465
H 0.598200 0.311300 0.730200 0.064812
H 0.558500 0.078100 0.659900 0.053660
H 0.636700 0.157400 0.565800 0.052338
C 0.643500 0.765400 0.639400 0.192399
C 0.603400 0.886500 0.596900 0.071394
C 0.531600 0.841800 0.618000 0.070082
C 0.895100 0.845900 0.455200 0.199890
C 0.784500 0.921300 0.438600 0.072908
C 0.828400 0.914600 0.376000 0.076705
C 0.904800 0.012700 0.638000 0.193228
C 0.810500 0.987300 0.717700 0.070217
C 0.862700 0.051000 0.742100 0.070427
C 0.902100 0.762500 0.700600 0.192395
C 0.924100 0.635600 0.662900 0.074692
C 0.880500 0.679400 0.610600 0.071214
C 0.856500 0.234600 0.139400 0.192399
C 0.896600 0.113500 0.096900 0.071394
C 0.968400 0.158200 0.118000 0.070082
C 0.604900 0.154100 0.955200 0.199890
C 0.715500 0.078700 0.938600 0.072908
C 0.671600 0.085400 0.876000 0.076705
C 0.595200 0.987300 0.138000 0.193228
C 0.689500 0.012700 0.217700 0.070217
C 0.637300 0.949000 0.242100 0.070427
C 0.597900 0.237500 0.200600 0.192395
C 0.575900 0.364400 0.162900 0.074692
C 0.619500 0.320600 0.110600 0.071214
C 0.356500 0.265400 0.860600 0.192399
C 0.396600 0.386500 0.903100 0.071394
C 0.468400 0.341800 0.882000 0.070082
C 0.104900 0.345900 0.044800 0.199890
C 0.215500 0.421300 0.061400 0.072908
C 0.171600 0.414600 0.124000 0.076705
C 0.095200 0.512700 0.862000 0.193228
C 0.189500 0.487300 0.782300 0.070217
C 0.137300 0.551000 0.757900 0.070427
C 0.097900 0.262500 0.799400 0.192395
C 0.075900 0.135600 0.837100 0.074692
C 0.119500 0.179400 0.889400 0.071214
C 0.143500 0.734600 0.360600 0.192399
C 0.103400 0.613500 0.403100 0.071394
C 0.031600 0.658200 0.382000 0.070082
C 0.395100 0.654100 0.544800 0.199890
C 0.284500 0.578700 0.561400 0.072908
C 0.328400 0.585400 0.624000 0.076705
C 0.404800 0.487300 0.362000 0.193228
C 0.310500 0.512700 0.282300 0.070217
C 0.362700 0.449000 0.257900 0.070427
C 0.402100 0.737500 0.299400 0.192395
C 0.424100 0.864400 0.337100 0.074692
C 0.380500 0.820600 0.389400 0.071214
C 0.356500 0.234600 0.360600 0.192399
C 0.396600 0.113500 0.403100 0.071394
C 0.468400 0.158200 0.382000 0.070082
C 0.104900 0.154100 0.544800 0.199890
C 0.215500 0.078700 0.561400 0.072908
C 0.171600 0.085400 0.624000 0.076705
C 0.095200 0.987300 0.362000 0.193228
C 0.189500 0.012700 0.282300 0.070217
C 0.137300 0.949000 0.257900 0.070427
C 0.097900 0.237500 0.299400 0.192395
C 0.075900 0.364400 0.337100 0.074692
C 0.119500 0.320600 0.389400 0.071214
C 0.143500 0.765400 0.860600 0.192399
C 0.103400 0.886500 0.903100 0.071394
C 0.031600 0.841800 0.882000 0.070082
C 0.395100 0.845900 0.044800 0.199890
C 0.284500 0.921300 0.061400 0.072908
C 0.328400 0.914600 0.124000 0.076705
C 0.404800 0.012700 0.862000 0.193228
C 0.310500 0.987300 0.782300 0.070217
C 0.362700 0.051000 0.757900 0.070427
C 0.402100 0.762500 0.799400 0.192395
C 0.424100 0.635600 0.837100 0.074692
C 0.380500 0.679400 0.889400 0.071214
C 0.643500 0.734600 0.139400 0.192399
C 0.603400 0.613500 0.096900 0.071394
C 0.531600 0.658200 0.118000 0.070082
C 0.895100 0.654100 0.955200 0.199890
C 0.784500 0.578700 0.938600 0.072908
C 0.828400 0.585400 0.876000 0.076705
C 0.904800 0.487300 0.138000 0.193228
C 0.810500 0.512700 0.217700 0.070217
C 0.862700 0.449000 0.242100 0.070427
C 0.902100 0.737500 0.200600 0.192395
C 0.924100 0.864400 0.162900 0.074692
C 0.880500 0.820600 0.110600 0.071214
C 0.856500 0.265400 0.639400 0.192399
C 0.896600 0.386500 0.596900 0.071394
C 0.968400 0.341800 0.618000 0.070082
C 0.604900 0.345900 0.455200 0.199890
C 0.715500 0.421300 0.438600 0.072908
C 0.671600 0.414600 0.376000 0.076705
C 0.595200 0.512700 0.638000 0.193228
C 0.689500 0.487300 0.717700 0.070217
C 0.637300 0.551000 0.742100 0.070427
C 0.597900 0.262500 0.700600 0.192395
C 0.575900 0.135600 0.662900 0.074692
C 0.619500 0.179400 0.610600 0.071214
N 0.557600 0.764200 0.645800 -0.503749
N 0.674100 0.838100 0.611800 -0.507336
N 0.900000 0.867000 0.386710 -0.515746
N 0.827700 0.876200 0.490260 -0.520993
N 0.923500 0.067800 0.691410 -0.506794
N 0.837400 0.962900 0.651150 -0.508911
N 0.938300 0.688500 0.720140 -0.513400
N 0.866400 0.761000 0.635020 -0.502375
N 0.942400 0.235800 0.145800 -0.503749
N 0.825900 0.161900 0.111800 -0.507336
N 0.600000 0.133000 0.886710 -0.515746
N 0.672300 0.123800 0.990260 -0.520993
N 0.576500 0.932200 0.191410 -0.506794
N 0.662600 0.037100 0.151150 -0.508911
N 0.561700 0.311500 0.220140 -0.513400
N 0.633600 0.239000 0.135020 -0.502375
N 0.442400 0.264200 0.854200 -0.503749
N 0.325900 0.338100 0.888200 -0.507336
N 0.100000 0.367000 0.113290 -0.515746
N 0.172300 0.376200 0.009740 -0.520993
N 0.076500 0.567800 0.808590 -0.506794
N 0.162600 0.462900 0.848850 -0.508911
N 0.061700 0.188500 0.779860 -0.513400
N 0.133600 0.261000 0.864980 -0.502375
N 0.057600 0.735800 0.354200 -0.503749
N 0.174100 0.661900 0.388200 -0.507336
N 0.400000 0.633000 0.613290 -0.515746
N 0.327700 0.623800 0.509740 -0.520993
N 0.423500 0.432200 0.308590 -0.506794
N 0.337400 0.537100 0.348850 -0.508911
N 0.438300 0.811500 0.279860 -0.513400
N 0.366400 0.739000 0.364980 -0.502375
N 0.442400 0.235800 0.354200 -0.503749
N 0.325900 0.161900 0.388200 -0.507336
N 0.100000 0.133000 0.613290 -0.515746
N 0.172300 0.123800 0.509740 -0.520993
N 0.076500 0.932200 0.308590 -0.506794
N 0.162600 0.037100 0.348850 -0.508911
N 0.061700 0.311500 0.279860 -0.513400
N 0.133600 0.239000 0.364980 -0.502375
N 0.057600 0.764200 0.854200 -0.503749
N 0.174100 0.838100 0.888200 -0.507336
N 0.400000 0.867000 0.113290 -0.515746
N 0.327700 0.876200 0.009740 -0.520993
N 0.423500 0.067800 0.808590 -0.506794
N 0.337400 0.962900 0.848850 -0.508911
N 0.438300 0.688500 0.779860 -0.513400
N 0.366400 0.761000 0.864980 -0.502375
N 0.557600 0.735800 0.145800 -0.503749
N 0.674100 0.661900 0.111800 -0.507336
N 0.900000 0.633000 0.886710 -0.515746
N 0.827700 0.623800 0.990260 -0.520993
N 0.923500 0.432200 0.191410 -0.506794
N 0.837400 0.537100 0.151150 -0.508911
N 0.938300 0.811500 0.220140 -0.513400
N 0.866400 0.739000 0.135020 -0.502375
N 0.942400 0.264200 0.645800 -0.503749
N 0.825900 0.338100 0.611800 -0.507336
N 0.600000 0.367000 0.386710 -0.515746
N 0.672300 0.376200 0.490260 -0.520993
N 0.576500 0.567800 0.691410 -0.506794
N 0.662600 0.462900 0.651150 -0.508911
N 0.561700 0.188500 0.720140 -0.513400
N 0.633600 0.261000 0.635020 -0.502375
