data_VOGTIV_clean_h_PM
_symmetry_space_group_name_H-M   'P 1'
_cell_length_a 6.758800
_cell_length_b 15.194100
_cell_length_c 15.194100
_cell_angle_alpha 62.158900
_cell_angle_beta 81.472900
_cell_angle_gamma 98.527100
_symmetry_Int_Tables_number 1

loop_
_symmetry_equiv_pos_as_xyz
 'x, y, z'

loop_
_atom_site_label
_atom_site_fract_x
_atom_site_fract_y
_atom_site_fract_z
_atom_site_charge
Mg 0.389980 0.420240 0.314160 1.097462
Mg 0.704140 0.314160 0.265600 1.097421
Mg 0.969740 0.265600 0.420240 1.097452
Mg 0.610020 0.579760 0.685840 1.097327
Mg 0.295860 0.685840 0.734400 1.097319
Mg 0.030260 0.734400 0.579760 1.097421
C 0.765250 0.438030 0.382680 0.483758
C 0.890680 0.462290 0.448850 -0.020468
C 0.808880 0.535760 0.476420 -0.028196
C 0.064250 0.437930 0.467780 0.187345
C 0.147930 0.382680 0.179290 0.483669
C 0.339530 0.448850 0.088860 -0.020512
C 0.285300 0.476420 0.987820 -0.028031
C 0.532030 0.467780 0.094290 0.187341
C 0.327220 0.179290 0.438030 0.483285
C 0.428390 0.088860 0.462290 -0.020426
C 0.273120 0.987820 0.535760 -0.028746
C 0.626320 0.094290 0.437930 0.187917
C 0.234750 0.561970 0.617320 0.482419
C 0.109320 0.537710 0.551150 -0.014242
C 0.191120 0.464240 0.523580 -0.032157
C 0.935750 0.562070 0.532220 0.186625
C 0.852070 0.617320 0.820710 0.482380
C 0.660470 0.551150 0.911140 -0.014344
C 0.714700 0.523580 0.012180 -0.032060
C 0.467970 0.532220 0.905710 0.186735
C 0.672780 0.820710 0.561970 0.483441
C 0.571610 0.911140 0.537710 -0.020394
C 0.726880 0.012180 0.464240 -0.028699
C 0.373680 0.905710 0.562070 0.188044
O 0.602830 0.475020 0.368730 -0.597653
O 0.820300 0.380600 0.352400 -0.612934
O 0.135010 0.371490 0.438660 -0.643255
O 0.971560 0.368730 0.156250 -0.597460
O 0.172700 0.352400 0.267000 -0.611966
O 0.573670 0.438660 0.189850 -0.643074
O 0.127810 0.156250 0.475020 -0.595094
O 0.439700 0.267000 0.380600 -0.612788
O 0.763520 0.189850 0.371490 -0.639051
O 0.397170 0.524980 0.631270 -0.588483
O 0.179700 0.619400 0.647600 -0.613772
O 0.864990 0.628510 0.561340 -0.639564
O 0.028440 0.631270 0.843750 -0.588503
O 0.827300 0.647600 0.733000 -0.613500
O 0.426330 0.561340 0.810150 -0.640040
O 0.872190 0.843750 0.524980 -0.594814
O 0.560300 0.733000 0.619400 -0.612999
O 0.236480 0.810150 0.628510 -0.639596
H 0.666030 0.561290 0.452350 0.127772
H 0.118380 0.452350 0.986360 0.127787
H 0.104750 0.986360 0.561290 0.127214
H 0.329570 0.430190 0.540370 0.127717
H 0.869940 0.540370 0.029450 0.127706
H 0.895250 0.013640 0.438710 0.127265
