data_ANUGIA_clean_PM
_symmetry_space_group_name_H-M   'P 1'
_cell_length_a 17.583800
_cell_length_b 17.583800
_cell_length_c 17.583800
_cell_angle_alpha 96.829900
_cell_angle_beta 96.829900
_cell_angle_gamma 96.829900
_symmetry_Int_Tables_number 1

loop_
_symmetry_equiv_pos_as_xyz
 'x, y, z'

loop_
_atom_site_label
_atom_site_fract_x
_atom_site_fract_y
_atom_site_fract_z
_atom_site_charge
Cu 0.307170 0.904660 0.904660 1.205366
Cu 0.904660 0.307170 0.904660 1.205366
Cu 0.904660 0.904660 0.307170 1.205366
Cu 0.851780 0.163170 0.851780 1.192458
Cu 0.851780 0.851780 0.163170 1.192458
Cu 0.163170 0.851780 0.851780 1.192458
H 0.213100 0.488100 0.838400 0.104319
H 0.183600 0.608600 0.830200 0.113008
H 0.425400 0.567500 0.927100 0.101178
H 0.395300 0.692000 0.927200 0.113217
H 0.235300 0.386500 0.896500 0.099982
H 0.147100 0.298000 0.888100 0.124411
H 0.838400 0.213100 0.488100 0.104319
H 0.830200 0.183600 0.608600 0.113008
H 0.927100 0.425400 0.567500 0.101178
H 0.927200 0.395300 0.692000 0.113217
H 0.896500 0.235300 0.386500 0.099982
H 0.888100 0.147100 0.298000 0.124411
H 0.488100 0.838400 0.213100 0.104319
H 0.608600 0.830200 0.183600 0.113008
H 0.567500 0.927100 0.425400 0.101178
H 0.692000 0.927200 0.395300 0.113217
H 0.386500 0.896500 0.235300 0.099982
H 0.298000 0.888100 0.147100 0.124411
H 0.488100 0.213100 0.838400 0.104319
H 0.608600 0.183600 0.830200 0.113008
H 0.567500 0.425400 0.927100 0.101178
H 0.692000 0.395300 0.927200 0.113217
H 0.386500 0.235300 0.896500 0.099982
H 0.298000 0.147100 0.888100 0.124411
H 0.213100 0.838400 0.488100 0.104319
H 0.183600 0.830200 0.608600 0.113008
H 0.425400 0.927100 0.567500 0.101178
H 0.395300 0.927200 0.692000 0.113217
H 0.235300 0.896500 0.386500 0.099982
H 0.147100 0.888100 0.298000 0.124411
H 0.838400 0.488100 0.213100 0.104319
H 0.830200 0.608600 0.183600 0.113008
H 0.927100 0.567500 0.425400 0.101178
H 0.927200 0.692000 0.395300 0.113217
H 0.896500 0.386500 0.235300 0.099982
H 0.888100 0.298000 0.147100 0.124411
H 0.453850 0.453850 0.883600 0.097872
H 0.070150 0.070150 0.873700 0.152420
H 0.883600 0.453850 0.453850 0.097872
H 0.873700 0.070150 0.070150 0.152423
H 0.453850 0.883600 0.453850 0.097872
H 0.070150 0.873700 0.070150 0.152423
C 0.287300 0.664000 0.882900 0.044273
C 0.251400 0.529500 0.857100 -0.154614
C 0.232300 0.601500 0.852800 0.004358
C 0.323800 0.511700 0.887400 0.053421
C 0.374800 0.574000 0.909700 -0.161749
C 0.356900 0.650600 0.908900 0.000510
C 0.271000 0.746100 0.880700 0.482060
C 0.014200 0.203500 0.880300 0.472543
C 0.343000 0.432600 0.886700 0.048938
C 0.284800 0.373900 0.892900 -0.131178
C 0.097800 0.191000 0.884200 0.059519
C 0.157100 0.247200 0.888100 -0.094711
C 0.882900 0.287300 0.664000 0.044273
C 0.857100 0.251400 0.529500 -0.154614
C 0.852800 0.232300 0.601500 0.004358
C 0.887400 0.323800 0.511700 0.053421
C 0.909700 0.374800 0.574000 -0.161749
C 0.908900 0.356900 0.650600 0.000510
C 0.880700 0.271000 0.746100 0.482060
C 0.880300 0.014200 0.203500 0.472543
C 0.886700 0.343000 0.432600 0.048938
C 0.892900 0.284800 0.373900 -0.131178
C 0.884200 0.097800 0.191000 0.059519
C 0.888100 0.157100 0.247200 -0.094710
C 0.664000 0.882900 0.287300 0.044273
C 0.529500 0.857100 0.251400 -0.154614
C 0.601500 0.852800 0.232300 0.004358
C 0.511700 0.887400 0.323800 0.053421
C 0.574000 0.909700 0.374800 -0.161749
C 0.650600 0.908900 0.356900 0.000510
C 0.746100 0.880700 0.271000 0.482060
C 0.203500 0.880300 0.014200 0.472543
C 0.432600 0.886700 0.343000 0.048938
C 0.373900 0.892900 0.284800 -0.131178
C 0.191000 0.884200 0.097800 0.059519
C 0.247200 0.888100 0.157100 -0.094710
C 0.664000 0.287300 0.882900 0.044273
C 0.529500 0.251400 0.857100 -0.154614
C 0.601500 0.232300 0.852800 0.004358
C 0.511700 0.323800 0.887400 0.053421
C 0.574000 0.374800 0.909700 -0.161749
C 0.650600 0.356900 0.908900 0.000510
C 0.746100 0.271000 0.880700 0.482060
C 0.203500 0.014200 0.880300 0.472543
C 0.432600 0.343000 0.886700 0.048938
C 0.373900 0.284800 0.892900 -0.131178
C 0.191000 0.097800 0.884200 0.059517
C 0.247200 0.157100 0.888100 -0.094710
C 0.287300 0.882900 0.664000 0.044273
C 0.251400 0.857100 0.529500 -0.154614
C 0.232300 0.852800 0.601500 0.004358
C 0.323800 0.887400 0.511700 0.053421
C 0.374800 0.909700 0.574000 -0.161749
C 0.356900 0.908900 0.650600 0.000510
C 0.271000 0.880700 0.746100 0.482060
C 0.014200 0.880300 0.203500 0.472543
C 0.343000 0.886700 0.432600 0.048938
C 0.284800 0.892900 0.373900 -0.131178
C 0.097800 0.884200 0.191000 0.059519
C 0.157100 0.888100 0.247200 -0.094710
C 0.882900 0.664000 0.287300 0.044273
C 0.857100 0.529500 0.251400 -0.154614
C 0.852800 0.601500 0.232300 0.004358
C 0.887400 0.511700 0.323800 0.053421
C 0.909700 0.574000 0.374800 -0.161749
C 0.908900 0.650600 0.356900 0.000510
C 0.880700 0.746100 0.271000 0.482060
C 0.880300 0.203500 0.014200 0.472543
C 0.886700 0.432600 0.343000 0.048938
C 0.892900 0.373900 0.284800 -0.131178
C 0.884200 0.191000 0.097800 0.059519
C 0.888100 0.247200 0.157100 -0.094710
C 0.414250 0.414250 0.885400 -0.143816
C 0.296550 0.296550 0.894000 0.043342
C 0.232350 0.232350 0.892200 0.020974
C 0.110490 0.110500 0.879410 -0.021940
C 0.885400 0.414250 0.414250 -0.143816
C 0.894000 0.296550 0.296550 0.043342
C 0.892200 0.232350 0.232350 0.020974
C 0.879410 0.110490 0.110490 -0.021947
C 0.414250 0.885400 0.414250 -0.143816
C 0.296550 0.894000 0.296550 0.043342
C 0.232350 0.892200 0.232350 0.020974
C 0.110490 0.879410 0.110490 -0.021947
O 0.323300 0.799600 0.901200 -0.666427
O 0.959800 0.149100 0.857100 -0.628171
O 0.006280 0.273950 0.900720 -0.629954
O 0.198690 0.752450 0.856420 -0.628270
O 0.901200 0.323300 0.799600 -0.666427
O 0.857100 0.959800 0.149100 -0.628171
O 0.900720 0.006280 0.273950 -0.629954
O 0.856420 0.198690 0.752450 -0.628270
O 0.799600 0.901200 0.323300 -0.666427
O 0.149100 0.857100 0.959800 -0.628171
O 0.273950 0.900720 0.006280 -0.629954
O 0.752450 0.856420 0.198690 -0.628270
O 0.799600 0.323300 0.901200 -0.666427
O 0.149100 0.959800 0.857100 -0.628172
O 0.273950 0.006280 0.900720 -0.629954
O 0.752450 0.198690 0.856420 -0.628270
O 0.323300 0.901200 0.799600 -0.666427
O 0.959800 0.857100 0.149100 -0.628171
O 0.006280 0.900720 0.273950 -0.629954
O 0.198690 0.856420 0.752450 -0.628270
O 0.901200 0.799600 0.323300 -0.666427
O 0.857100 0.149100 0.959800 -0.628171
O 0.900720 0.273950 0.006280 -0.629954
O 0.856420 0.752450 0.198690 -0.628270
