data_BEDYEQ_clean_PM
_symmetry_space_group_name_H-M   'P 1'
_cell_length_a 41.968000
_cell_length_b 41.968000
_cell_length_c 17.143000
_cell_angle_alpha 90.000000
_cell_angle_beta 90.000000
_cell_angle_gamma 120.000000
_symmetry_Int_Tables_number 1

loop_
_symmetry_equiv_pos_as_xyz
 'x, y, z'

loop_
_atom_site_label
_atom_site_fract_x
_atom_site_fract_y
_atom_site_fract_z
_atom_site_charge
Zr 0.457980 0.000000 0.102660 2.961098
Zr 0.533820 0.067640 -0.000000 3.000328
Fe 0.512000 0.256000 0.500000 1.202925
O 0.516450 0.032890 0.103100 -1.348663
O 0.474040 0.033850 -0.000000 -1.260201
O 0.517600 0.098730 0.078920 -0.681394
O 0.469050 0.055320 0.143480 -0.661844
N 0.504050 0.252020 0.382400 -0.508611
N 0.502930 0.204320 0.500000 -0.517212
C 0.502260 0.193480 0.358100 -0.044725
C 0.502870 0.183920 0.435400 0.132951
C 0.526650 0.150190 0.191900 0.001425
H 0.546800 0.156400 0.157700 0.095084
C 0.499690 0.234150 0.253600 -0.149225
H 0.498100 0.220100 0.208900 0.099108
C 0.495920 0.116620 0.187600 0.029550
C 0.493600 0.087680 0.131400 0.615020
C 0.467010 0.107790 0.238100 0.005298
H 0.445500 0.084200 0.236300 0.111932
C 0.502580 0.224870 0.333400 0.144598
C 0.469910 0.133960 0.291300 -0.166343
H 0.449600 0.128300 0.324500 0.107288
C 0.500480 0.167010 0.297500 0.063590
C 0.528480 0.175690 0.247200 -0.193223
H 0.549700 0.199500 0.249400 0.096067
C 0.503000 0.151410 0.460700 -0.081146
H 0.503100 0.133200 0.428000 0.092570
O 0.405410 0.000000 0.091800 -0.363591
O 0.461480 0.000000 0.230900 -0.379919
Zr 0.000000 0.457980 0.102660 2.961090
Zr 0.542030 0.542030 0.102660 2.961014
Zr 0.542030 0.000000 0.102660 2.961022
Zr 0.000000 0.542030 0.102660 2.961014
Zr 0.457980 0.457980 0.102660 2.961090
Zr 0.000000 0.457980 0.897340 2.961098
Zr 0.457980 0.000000 0.897340 2.961090
Zr 0.542030 0.542030 0.897340 2.961014
Zr 0.000000 0.542030 0.897340 2.961022
Zr 0.542030 0.000000 0.897340 2.961014
Zr 0.457980 0.457980 0.897340 2.961090
Zr 0.932360 0.466180 -0.000000 3.000328
Zr 0.533820 0.466180 0.000000 3.000328
Zr 0.466180 0.932360 0.000000 3.000328
Zr 0.067640 0.533820 0.000000 3.000328
Zr 0.466180 0.533820 0.000000 3.000328
Fe 0.744000 0.256000 0.500000 1.202736
Fe 0.744000 0.488000 0.500000 1.202925
Fe 0.488000 0.744000 0.500000 1.202925
Fe 0.256000 0.744000 0.500000 1.202736
Fe 0.256000 0.512000 0.500000 1.202925
O 0.967110 0.483560 0.103100 -1.348634
O 0.516440 0.483550 0.103100 -1.348628
O 0.483550 0.967110 0.103100 -1.348664
O 0.032890 0.516440 0.103100 -1.348634
O 0.483560 0.516450 0.103100 -1.348628
O 0.032890 0.516450 0.896900 -1.348663
O 0.483560 0.967110 0.896900 -1.348634
O 0.483550 0.516440 0.896900 -1.348628
O 0.967110 0.483550 0.896900 -1.348664
O 0.516440 0.032890 0.896900 -1.348634
O 0.516450 0.483560 0.896900 -1.348628
O 0.966150 0.440190 -0.000000 -1.260178
O 0.559810 0.525960 -0.000000 -1.260159
O 0.525960 0.966150 0.000000 -1.260168
O 0.033850 0.559810 0.000000 -1.260146
O 0.440190 0.474040 -0.000000 -1.260191
O 0.033850 0.474040 -0.000000 -1.260201
O 0.440190 0.966150 0.000000 -1.260178
O 0.525960 0.559810 -0.000000 -1.260159
O 0.966150 0.525960 0.000000 -1.260168
O 0.559810 0.033850 0.000000 -1.260146
O 0.474040 0.440190 -0.000000 -1.260191
O 0.901270 0.418870 0.078920 -0.681369
O 0.581130 0.482400 0.078920 -0.681389
O 0.482400 0.901270 0.078920 -0.681395
O 0.098730 0.581130 0.078920 -0.681370
O 0.418870 0.517600 0.078920 -0.681387
O 0.098730 0.517600 0.921080 -0.681394
O 0.418870 0.901270 0.921080 -0.681369
O 0.482400 0.581130 0.921080 -0.681389
O 0.901270 0.482400 0.921080 -0.681395
O 0.581130 0.098730 0.921080 -0.681370
O 0.517600 0.418870 0.921080 -0.681387
O 0.482400 0.901270 0.921080 -0.681403
O 0.098730 0.581130 0.921080 -0.681347
O 0.418870 0.517600 0.921080 -0.681411
O 0.517600 0.098730 0.921080 -0.681401
O 0.901270 0.418870 0.921080 -0.681346
O 0.581130 0.482400 0.921080 -0.681413
O 0.901270 0.482400 0.078920 -0.681403
O 0.581130 0.098730 0.078920 -0.681347
O 0.517600 0.418870 0.078920 -0.681411
O 0.098730 0.517600 0.078920 -0.681401
O 0.418870 0.901270 0.078920 -0.681346
O 0.482400 0.581130 0.078920 -0.681413
O 0.944680 0.413730 0.143480 -0.661834
O 0.586270 0.530950 0.143480 -0.661917
O 0.530950 0.944680 0.143480 -0.661920
O 0.055320 0.586270 0.143480 -0.661910
O 0.413730 0.469050 0.143480 -0.661841
O 0.055320 0.469050 0.856520 -0.661844
O 0.413730 0.944680 0.856520 -0.661834
O 0.530950 0.586270 0.856520 -0.661917
O 0.944680 0.530950 0.856520 -0.661920
O 0.586270 0.055320 0.856520 -0.661910
O 0.469050 0.413730 0.856520 -0.661841
O 0.530950 0.944680 0.856520 -0.661826
O 0.055320 0.586270 0.856520 -0.661827
O 0.413730 0.469050 0.856520 -0.661747
O 0.469050 0.055320 0.856520 -0.661749
O 0.944680 0.413730 0.856520 -0.661750
O 0.586270 0.530950 0.856520 -0.661823
O 0.944680 0.530950 0.143480 -0.661826
O 0.586270 0.055320 0.143480 -0.661827
O 0.469050 0.413730 0.143480 -0.661747
O 0.055320 0.469050 0.143480 -0.661749
O 0.413730 0.944680 0.143480 -0.661750
O 0.530950 0.586270 0.143480 -0.661823
N 0.747980 0.252030 0.382400 -0.508097
N 0.747970 0.495950 0.382400 -0.508611
N 0.495950 0.747980 0.382400 -0.508611
N 0.252020 0.747970 0.382400 -0.508097
N 0.252030 0.504050 0.382400 -0.508611
N 0.252020 0.504050 0.617600 -0.508611
N 0.252030 0.747980 0.617600 -0.508097
N 0.495950 0.747970 0.617600 -0.508611
N 0.747980 0.495950 0.617600 -0.508611
N 0.747970 0.252020 0.617600 -0.508097
N 0.504050 0.252030 0.617600 -0.508611
N 0.795680 0.298610 0.500000 -0.517421
N 0.701390 0.497070 0.500000 -0.517213
N 0.497070 0.795680 0.500000 -0.517212
N 0.204320 0.701390 0.500000 -0.517421
N 0.298610 0.502930 0.500000 -0.517213
N 0.204320 0.502930 0.500000 -0.517212
N 0.298610 0.795680 0.500000 -0.517421
N 0.497070 0.701390 0.500000 -0.517213
N 0.795680 0.497070 0.500000 -0.517212
N 0.701390 0.204320 0.500000 -0.517421
N 0.502930 0.298610 0.500000 -0.517213
C 0.806520 0.308780 0.358100 -0.047636
C 0.691220 0.497740 0.358100 -0.044728
C 0.497740 0.806520 0.358100 -0.044725
C 0.193480 0.691220 0.358100 -0.047636
C 0.308780 0.502260 0.358100 -0.044728
C 0.193480 0.502260 0.641900 -0.044725
C 0.308780 0.806520 0.641900 -0.047636
C 0.497740 0.691220 0.641900 -0.044728
C 0.806520 0.497740 0.641900 -0.044725
C 0.691220 0.193480 0.641900 -0.047636
C 0.502260 0.308780 0.641900 -0.044728
C 0.497740 0.806520 0.641900 -0.050624
C 0.193480 0.691220 0.641900 -0.047661
C 0.308780 0.502260 0.641900 -0.050626
C 0.502260 0.193480 0.641900 -0.050624
C 0.806520 0.308780 0.641900 -0.047661
C 0.691220 0.497740 0.641900 -0.050626
C 0.806520 0.497740 0.358100 -0.050624
C 0.691220 0.193480 0.358100 -0.047661
C 0.502260 0.308780 0.358100 -0.050626
C 0.193480 0.502260 0.358100 -0.050624
C 0.308780 0.806520 0.358100 -0.047661
C 0.497740 0.691220 0.358100 -0.050626
C 0.816080 0.318950 0.435400 0.133796
C 0.681050 0.497130 0.435400 0.132946
C 0.497130 0.816080 0.435400 0.132951
C 0.183920 0.681050 0.435400 0.133796
C 0.318950 0.502870 0.435400 0.132946
C 0.183920 0.502870 0.564600 0.132951
C 0.318950 0.816080 0.564600 0.133796
C 0.497130 0.681050 0.564600 0.132946
C 0.816080 0.497130 0.564600 0.132951
C 0.681050 0.183920 0.564600 0.133796
C 0.502870 0.318950 0.564600 0.132946
C 0.497130 0.816080 0.564600 0.134792
C 0.183920 0.681050 0.564600 0.133801
C 0.318950 0.502870 0.564600 0.134796
C 0.502870 0.183920 0.564600 0.134792
C 0.816080 0.318950 0.564600 0.133801
C 0.681050 0.497130 0.564600 0.134796
C 0.816080 0.497130 0.435400 0.134792
C 0.681050 0.183920 0.435400 0.133801
C 0.502870 0.318950 0.435400 0.134796
C 0.183920 0.502870 0.435400 0.134792
C 0.318950 0.816080 0.435400 0.133801
C 0.497130 0.681050 0.435400 0.134796
C 0.849810 0.376460 0.191900 0.001868
C 0.623540 0.473350 0.191900 0.001437
C 0.473350 0.849810 0.191900 0.001425
C 0.150190 0.623540 0.191900 0.001867
C 0.376460 0.526650 0.191900 0.001438
C 0.150190 0.526650 0.808100 0.001425
C 0.376460 0.849810 0.808100 0.001868
C 0.473350 0.623540 0.808100 0.001437
C 0.849810 0.473350 0.808100 0.001425
C 0.623540 0.150190 0.808100 0.001867
C 0.526650 0.376460 0.808100 0.001438
C 0.473350 0.849810 0.808100 0.002410
C 0.150190 0.623540 0.808100 0.001845
C 0.376460 0.526650 0.808100 0.002402
C 0.526650 0.150190 0.808100 0.002411
C 0.849810 0.376460 0.808100 0.001846
C 0.623540 0.473350 0.808100 0.002401
C 0.849810 0.473350 0.191900 0.002410
C 0.623540 0.150190 0.191900 0.001845
C 0.526650 0.376460 0.191900 0.002402
C 0.150190 0.526650 0.191900 0.002411
C 0.376460 0.849810 0.191900 0.001846
C 0.473350 0.623540 0.191900 0.002401
H 0.843600 0.390400 0.157700 0.095118
H 0.609600 0.453200 0.157700 0.095084
H 0.453200 0.843600 0.157700 0.095084
H 0.156400 0.609600 0.157700 0.095118
H 0.390400 0.546800 0.157700 0.095085
H 0.156400 0.546800 0.842300 0.095084
H 0.390400 0.843600 0.842300 0.095118
H 0.453200 0.609600 0.842300 0.095084
H 0.843600 0.453200 0.842300 0.095084
H 0.609600 0.156400 0.842300 0.095118
H 0.546800 0.390400 0.842300 0.095085
H 0.453200 0.843600 0.842300 0.095082
H 0.156400 0.609600 0.842300 0.095095
H 0.390400 0.546800 0.842300 0.095062
H 0.546800 0.156400 0.842300 0.095083
H 0.843600 0.390400 0.842300 0.095096
H 0.609600 0.453200 0.842300 0.095062
H 0.843600 0.453200 0.157700 0.095082
H 0.609600 0.156400 0.157700 0.095095
H 0.546800 0.390400 0.157700 0.095062
H 0.156400 0.546800 0.157700 0.095083
H 0.390400 0.843600 0.157700 0.095096
H 0.453200 0.609600 0.157700 0.095062
C 0.765850 0.265540 0.253600 -0.082971
C 0.734460 0.500310 0.253600 -0.149242
C 0.500310 0.765850 0.253600 -0.149224
C 0.234150 0.734460 0.253600 -0.082971
C 0.265540 0.499690 0.253600 -0.149243
C 0.234150 0.499690 0.746400 -0.149225
C 0.265540 0.765850 0.746400 -0.082971
C 0.500310 0.734460 0.746400 -0.149242
C 0.765850 0.500310 0.746400 -0.149224
C 0.734460 0.234150 0.746400 -0.082971
C 0.499690 0.265540 0.746400 -0.149243
C 0.234150 0.734460 0.746400 -0.082903
C 0.765850 0.265540 0.746400 -0.082903
C 0.734460 0.234150 0.253600 -0.082903
C 0.265540 0.765850 0.253600 -0.082903
H 0.779900 0.278000 0.208900 0.086707
H 0.722000 0.501900 0.208900 0.099104
H 0.501900 0.779900 0.208900 0.099108
H 0.220100 0.722000 0.208900 0.086707
H 0.278000 0.498100 0.208900 0.099104
H 0.220100 0.498100 0.791100 0.099108
H 0.278000 0.779900 0.791100 0.086707
H 0.501900 0.722000 0.791100 0.099104
H 0.779900 0.501900 0.791100 0.099108
H 0.722000 0.220100 0.791100 0.086707
H 0.498100 0.278000 0.791100 0.099104
H 0.501900 0.779900 0.791100 0.066943
H 0.220100 0.722000 0.791100 0.086701
H 0.278000 0.498100 0.791100 0.066944
H 0.498100 0.220100 0.791100 0.066943
H 0.779900 0.278000 0.791100 0.086702
H 0.722000 0.501900 0.791100 0.066944
H 0.779900 0.501900 0.208900 0.066943
H 0.722000 0.220100 0.208900 0.086701
H 0.498100 0.278000 0.208900 0.066944
H 0.220100 0.498100 0.208900 0.066943
H 0.278000 0.779900 0.208900 0.086702
H 0.501900 0.722000 0.208900 0.066944
C 0.883380 0.379300 0.187600 0.029589
C 0.620700 0.504080 0.187600 0.029560
C 0.504080 0.883380 0.187600 0.029550
C 0.116620 0.620700 0.187600 0.029590
C 0.379300 0.495920 0.187600 0.029560
C 0.116620 0.495920 0.812400 0.029550
C 0.379300 0.883380 0.812400 0.029589
C 0.504080 0.620700 0.812400 0.029560
C 0.883380 0.504080 0.812400 0.029550
C 0.620700 0.116620 0.812400 0.029590
C 0.495920 0.379300 0.812400 0.029560
C 0.504080 0.883380 0.812400 0.029591
C 0.116620 0.620700 0.812400 0.029573
C 0.379300 0.495920 0.812400 0.029588
C 0.495920 0.116620 0.812400 0.029591
C 0.883380 0.379300 0.812400 0.029572
C 0.620700 0.504080 0.812400 0.029588
C 0.883380 0.504080 0.187600 0.029591
C 0.620700 0.116620 0.187600 0.029573
C 0.495920 0.379300 0.187600 0.029588
C 0.116620 0.495920 0.187600 0.029591
C 0.379300 0.883380 0.187600 0.029572
C 0.504080 0.620700 0.187600 0.029588
C 0.912320 0.405920 0.131400 0.615021
C 0.594080 0.506400 0.131400 0.615051
C 0.506400 0.912320 0.131400 0.615047
C 0.087680 0.594080 0.131400 0.615048
C 0.405920 0.493600 0.131400 0.615024
C 0.087680 0.493600 0.868600 0.615020
C 0.405920 0.912320 0.868600 0.615021
C 0.506400 0.594080 0.868600 0.615051
C 0.912320 0.506400 0.868600 0.615047
C 0.594080 0.087680 0.868600 0.615048
C 0.493600 0.405920 0.868600 0.615024
C 0.506400 0.912320 0.868600 0.615007
C 0.087680 0.594080 0.868600 0.615025
C 0.405920 0.493600 0.868600 0.614978
C 0.493600 0.087680 0.868600 0.614980
C 0.912320 0.405920 0.868600 0.614998
C 0.594080 0.506400 0.868600 0.615005
C 0.912320 0.506400 0.131400 0.615007
C 0.594080 0.087680 0.131400 0.615025
C 0.493600 0.405920 0.131400 0.614978
C 0.087680 0.493600 0.131400 0.614980
C 0.405920 0.912320 0.131400 0.614998
C 0.506400 0.594080 0.131400 0.615005
C 0.892210 0.359220 0.238100 0.005417
C 0.640780 0.532990 0.238100 0.005301
C 0.532990 0.892210 0.238100 0.005300
C 0.107790 0.640780 0.238100 0.005418
C 0.359220 0.467010 0.238100 0.005299
C 0.107790 0.467010 0.761900 0.005298
C 0.359220 0.892210 0.761900 0.005417
C 0.532990 0.640780 0.761900 0.005301
C 0.892210 0.532990 0.761900 0.005300
C 0.640780 0.107790 0.761900 0.005418
C 0.467010 0.359220 0.761900 0.005299
C 0.532990 0.892210 0.761900 0.005583
C 0.107790 0.640780 0.761900 0.005412
C 0.359220 0.467010 0.761900 0.005579
C 0.467010 0.107790 0.761900 0.005581
C 0.892210 0.359220 0.761900 0.005411
C 0.640780 0.532990 0.761900 0.005581
C 0.892210 0.532990 0.238100 0.005583
C 0.640780 0.107790 0.238100 0.005412
C 0.467010 0.359220 0.238100 0.005579
C 0.107790 0.467010 0.238100 0.005581
C 0.359220 0.892210 0.238100 0.005411
C 0.532990 0.640780 0.238100 0.005581
H 0.915800 0.361300 0.236300 0.111929
H 0.638700 0.554500 0.236300 0.111927
H 0.554500 0.915800 0.236300 0.111933
H 0.084200 0.638700 0.236300 0.111930
H 0.361300 0.445500 0.236300 0.111926
H 0.084200 0.445500 0.763700 0.111932
H 0.361300 0.915800 0.763700 0.111929
H 0.554500 0.638700 0.763700 0.111927
H 0.915800 0.554500 0.763700 0.111933
H 0.638700 0.084200 0.763700 0.111930
H 0.445500 0.361300 0.763700 0.111926
H 0.554500 0.915800 0.763700 0.111884
H 0.084200 0.638700 0.763700 0.111928
H 0.361300 0.445500 0.763700 0.111878
H 0.445500 0.084200 0.763700 0.111883
H 0.915800 0.361300 0.763700 0.111927
H 0.638700 0.554500 0.763700 0.111879
H 0.915800 0.554500 0.236300 0.111884
H 0.638700 0.084200 0.236300 0.111928
H 0.445500 0.361300 0.236300 0.111878
H 0.084200 0.445500 0.236300 0.111883
H 0.361300 0.915800 0.236300 0.111927
H 0.554500 0.638700 0.236300 0.111879
C 0.775130 0.277710 0.333400 0.135302
C 0.722290 0.497420 0.333400 0.144598
C 0.497420 0.775130 0.333400 0.144598
C 0.224870 0.722290 0.333400 0.135302
C 0.277710 0.502580 0.333400 0.144598
C 0.224870 0.502580 0.666600 0.144598
C 0.277710 0.775130 0.666600 0.135302
C 0.497420 0.722290 0.666600 0.144598
C 0.775130 0.497420 0.666600 0.144598
C 0.722290 0.224870 0.666600 0.135302
C 0.502580 0.277710 0.666600 0.144598
C 0.497420 0.775130 0.666600 0.119277
C 0.224870 0.722290 0.666600 0.135233
C 0.277710 0.502580 0.666600 0.119277
C 0.502580 0.224870 0.666600 0.119277
C 0.775130 0.277710 0.666600 0.135233
C 0.722290 0.497420 0.666600 0.119277
C 0.775130 0.497420 0.333400 0.119277
C 0.722290 0.224870 0.333400 0.135233
C 0.502580 0.277710 0.333400 0.119277
C 0.224870 0.502580 0.333400 0.119277
C 0.277710 0.775130 0.333400 0.135233
C 0.497420 0.722290 0.333400 0.119277
C 0.866040 0.335950 0.291300 -0.166868
C 0.664050 0.530090 0.291300 -0.166345
C 0.530090 0.866040 0.291300 -0.166344
C 0.133960 0.664050 0.291300 -0.166869
C 0.335950 0.469910 0.291300 -0.166344
C 0.133960 0.469910 0.708700 -0.166343
C 0.335950 0.866040 0.708700 -0.166868
C 0.530090 0.664050 0.708700 -0.166345
C 0.866040 0.530090 0.708700 -0.166344
C 0.664050 0.133960 0.708700 -0.166869
C 0.469910 0.335950 0.708700 -0.166344
C 0.530090 0.866040 0.708700 -0.167862
C 0.133960 0.664050 0.708700 -0.166867
C 0.335950 0.469910 0.708700 -0.167863
C 0.469910 0.133960 0.708700 -0.167861
C 0.866040 0.335950 0.708700 -0.166866
C 0.664050 0.530090 0.708700 -0.167864
C 0.866040 0.530090 0.291300 -0.167862
C 0.664050 0.133960 0.291300 -0.166867
C 0.469910 0.335950 0.291300 -0.167863
C 0.133960 0.469910 0.291300 -0.167861
C 0.335950 0.866040 0.291300 -0.166866
C 0.530090 0.664050 0.291300 -0.167864
H 0.871700 0.321300 0.324500 0.107281
H 0.678700 0.550400 0.324500 0.107283
H 0.550400 0.871700 0.324500 0.107288
H 0.128300 0.678700 0.324500 0.107281
H 0.321300 0.449600 0.324500 0.107283
H 0.128300 0.449600 0.675500 0.107288
H 0.321300 0.871700 0.675500 0.107281
H 0.550400 0.678700 0.675500 0.107283
H 0.871700 0.550400 0.675500 0.107288
H 0.678700 0.128300 0.675500 0.107281
H 0.449600 0.321300 0.675500 0.107283
H 0.550400 0.871700 0.675500 0.107187
H 0.128300 0.678700 0.675500 0.107283
H 0.321300 0.449600 0.675500 0.107184
H 0.449600 0.128300 0.675500 0.107187
H 0.871700 0.321300 0.675500 0.107283
H 0.678700 0.550400 0.675500 0.107184
H 0.871700 0.550400 0.324500 0.107187
H 0.678700 0.128300 0.324500 0.107283
H 0.449600 0.321300 0.324500 0.107184
H 0.128300 0.449600 0.324500 0.107187
H 0.321300 0.871700 0.324500 0.107283
H 0.550400 0.678700 0.324500 0.107184
C 0.832990 0.333470 0.297500 0.063192
C 0.666530 0.499520 0.297500 0.063588
C 0.499520 0.832990 0.297500 0.063590
C 0.167010 0.666530 0.297500 0.063193
C 0.333470 0.500480 0.297500 0.063588
C 0.167010 0.500480 0.702500 0.063590
C 0.333470 0.832990 0.702500 0.063192
C 0.499520 0.666530 0.702500 0.063588
C 0.832990 0.499520 0.702500 0.063590
C 0.666530 0.167010 0.702500 0.063193
C 0.500480 0.333470 0.702500 0.063588
C 0.499520 0.832990 0.702500 0.062637
C 0.167010 0.666530 0.702500 0.063210
C 0.333470 0.500480 0.702500 0.062646
C 0.500480 0.167010 0.702500 0.062637
C 0.832990 0.333470 0.702500 0.063209
C 0.666530 0.499520 0.702500 0.062646
C 0.832990 0.499520 0.297500 0.062637
C 0.666530 0.167010 0.297500 0.063210
C 0.500480 0.333470 0.297500 0.062646
C 0.167010 0.500480 0.297500 0.062637
C 0.333470 0.832990 0.297500 0.063209
C 0.499520 0.666530 0.297500 0.062646
C 0.824310 0.352790 0.247200 -0.195256
C 0.647210 0.471520 0.247200 -0.193178
C 0.471520 0.824310 0.247200 -0.193223
C 0.175690 0.647210 0.247200 -0.195256
C 0.352790 0.528480 0.247200 -0.193178
C 0.175690 0.528480 0.752800 -0.193223
C 0.352790 0.824310 0.752800 -0.195256
C 0.471520 0.647210 0.752800 -0.193178
C 0.824310 0.471520 0.752800 -0.193223
C 0.647210 0.175690 0.752800 -0.195256
C 0.528480 0.352790 0.752800 -0.193178
C 0.471520 0.824310 0.752800 -0.198257
C 0.175690 0.647210 0.752800 -0.195350
C 0.352790 0.528480 0.752800 -0.198304
C 0.528480 0.175690 0.752800 -0.198257
C 0.824310 0.352790 0.752800 -0.195350
C 0.647210 0.471520 0.752800 -0.198304
C 0.824310 0.471520 0.247200 -0.198257
C 0.647210 0.175690 0.247200 -0.195350
C 0.528480 0.352790 0.247200 -0.198304
C 0.175690 0.528480 0.247200 -0.198257
C 0.352790 0.824310 0.247200 -0.195350
C 0.471520 0.647210 0.247200 -0.198304
H 0.800500 0.350200 0.249400 0.095840
H 0.649800 0.450300 0.249400 0.096044
H 0.450300 0.800500 0.249400 0.096067
H 0.199500 0.649800 0.249400 0.095840
H 0.350200 0.549700 0.249400 0.096044
H 0.199500 0.549700 0.750600 0.096067
H 0.350200 0.800500 0.750600 0.095840
H 0.450300 0.649800 0.750600 0.096044
H 0.800500 0.450300 0.750600 0.096067
H 0.649800 0.199500 0.750600 0.095840
H 0.549700 0.350200 0.750600 0.096044
H 0.450300 0.800500 0.750600 0.095355
H 0.199500 0.649800 0.750600 0.095856
H 0.350200 0.549700 0.750600 0.095351
H 0.549700 0.199500 0.750600 0.095355
H 0.800500 0.350200 0.750600 0.095856
H 0.649800 0.450300 0.750600 0.095351
H 0.800500 0.450300 0.249400 0.095355
H 0.649800 0.199500 0.249400 0.095856
H 0.549700 0.350200 0.249400 0.095351
H 0.199500 0.549700 0.249400 0.095355
H 0.350200 0.800500 0.249400 0.095856
H 0.450300 0.649800 0.249400 0.095351
C 0.848590 0.351590 0.460700 -0.080049
C 0.648410 0.497000 0.460700 -0.081100
C 0.497000 0.848590 0.460700 -0.081146
C 0.151410 0.648410 0.460700 -0.080049
C 0.351590 0.503000 0.460700 -0.081100
C 0.151410 0.503000 0.539300 -0.081146
C 0.351590 0.848590 0.539300 -0.080049
C 0.497000 0.648410 0.539300 -0.081100
C 0.848590 0.497000 0.539300 -0.081146
C 0.648410 0.151410 0.539300 -0.080049
C 0.503000 0.351590 0.539300 -0.081100
C 0.497000 0.848590 0.539300 -0.079012
C 0.151410 0.648410 0.539300 -0.080126
C 0.351590 0.503000 0.539300 -0.079052
C 0.503000 0.151410 0.539300 -0.079012
C 0.848590 0.351590 0.539300 -0.080125
C 0.648410 0.497000 0.539300 -0.079052
C 0.848590 0.497000 0.460700 -0.079012
C 0.648410 0.151410 0.460700 -0.080126
C 0.503000 0.351590 0.460700 -0.079052
C 0.151410 0.503000 0.460700 -0.079012
C 0.351590 0.848590 0.460700 -0.080125
C 0.497000 0.648410 0.460700 -0.079052
H 0.866800 0.369900 0.428000 0.092497
H 0.630100 0.496900 0.428000 0.092576
H 0.496900 0.866800 0.428000 0.092569
H 0.133200 0.630100 0.428000 0.092496
H 0.369900 0.503100 0.428000 0.092576
H 0.133200 0.503100 0.572000 0.092570
H 0.369900 0.866800 0.572000 0.092497
H 0.496900 0.630100 0.572000 0.092576
H 0.866800 0.496900 0.572000 0.092569
H 0.630100 0.133200 0.572000 0.092496
H 0.503100 0.369900 0.572000 0.092576
H 0.496900 0.866800 0.572000 0.092476
H 0.133200 0.630100 0.572000 0.092490
H 0.369900 0.503100 0.572000 0.092478
H 0.503100 0.133200 0.572000 0.092476
H 0.866800 0.369900 0.572000 0.092490
H 0.630100 0.496900 0.572000 0.092477
H 0.866800 0.496900 0.428000 0.092476
H 0.630100 0.133200 0.428000 0.092490
H 0.503100 0.369900 0.428000 0.092478
H 0.133200 0.503100 0.428000 0.092476
H 0.369900 0.866800 0.428000 0.092490
H 0.496900 0.630100 0.428000 0.092477
O 0.000000 0.405410 0.091800 -0.363632
O 0.594590 0.594590 0.091800 -0.363909
O 0.594590 0.000000 0.091800 -0.363841
O 0.000000 0.594590 0.091800 -0.363882
O 0.405410 0.405410 0.091800 -0.363659
O 0.000000 0.405410 0.908200 -0.363591
O 0.405410 0.000000 0.908200 -0.363632
O 0.594590 0.594590 0.908200 -0.363909
O 0.000000 0.594590 0.908200 -0.363841
O 0.594590 0.000000 0.908200 -0.363882
O 0.405410 0.405410 0.908200 -0.363659
O 0.000000 0.461480 0.230900 -0.379857
O 0.538520 0.538520 0.230900 -0.379849
O 0.538520 0.000000 0.230900 -0.379891
O 0.000000 0.538520 0.230900 -0.379829
O 0.461480 0.461480 0.230900 -0.379877
O 0.000000 0.461480 0.769100 -0.379919
O 0.461480 0.000000 0.769100 -0.379857
O 0.538520 0.538520 0.769100 -0.379849
O 0.000000 0.538520 0.769100 -0.379891
O 0.538520 0.000000 0.769100 -0.379829
O 0.461480 0.461480 0.769100 -0.379877
