data_MERLAZ_clean_PM
_symmetry_space_group_name_H-M   'P 1'
_cell_length_a 31.269400
_cell_length_b 31.269400
_cell_length_c 16.953600
_cell_angle_alpha 90.000000
_cell_angle_beta 90.000000
_cell_angle_gamma 120.000000
_symmetry_Int_Tables_number 1

loop_
_symmetry_equiv_pos_as_xyz
 'x, y, z'

loop_
_atom_site_label
_atom_site_fract_x
_atom_site_fract_y
_atom_site_fract_z
_atom_site_charge
Fe 0.298930 0.701070 0.500000 1.556861
O 0.263250 0.736750 0.500000 -0.285624
O 0.333330 0.666670 0.500000 -1.096213
Fe 0.000000 0.500000 0.000000 1.244758
O 0.253570 0.663090 0.419880 -0.563588
C 0.238770 0.619390 0.392780 0.456345
C 0.201970 0.600990 0.326880 0.030561
C 0.183770 0.552490 0.295380 0.001822
C 0.147970 0.534590 0.234680 -0.144296
C 0.129770 0.564890 0.204380 0.043400
C 0.090370 0.545190 0.141880 -0.044275
C 0.104370 0.552190 0.063080 0.140928
C 0.154370 0.577190 0.039880 -0.072182
N 0.072570 0.536290 0.000000 -0.530301
C 0.040570 0.520290 0.163880 0.138928
C 0.025970 0.512990 0.242680 -0.065829
N 0.000000 0.500000 0.113580 -0.542688
H 0.196870 0.528090 0.318080 0.109242
H 0.134170 0.497090 0.211680 0.089079
H 0.187570 0.593790 0.077080 0.078600
H 0.049370 0.524690 0.295180 0.081394
Fe 0.298930 0.597870 0.500000 1.556861
Fe 0.402130 0.701070 0.500000 1.556861
Fe 0.701070 0.298930 0.500000 1.556861
Fe 0.701070 0.402130 0.500000 1.556861
Fe 0.597870 0.298930 0.500000 1.556861
O 0.263250 0.526510 0.500000 -0.285624
O 0.473490 0.736750 0.500000 -0.285624
O 0.736750 0.263250 0.500000 -0.285624
O 0.736750 0.473490 0.500000 -0.285624
O 0.526510 0.263250 0.500000 -0.285624
O 0.666670 0.333330 0.500000 -1.096213
Fe 0.500000 0.500000 0.000000 1.244692
Fe 0.500000 -0.000000 0.000000 1.244758
O 0.336910 0.590490 0.419880 -0.563588
O 0.409510 0.746430 0.419880 -0.563588
O 0.746430 0.336910 0.419880 -0.563588
O 0.663090 0.409510 0.419880 -0.563588
O 0.590490 0.253570 0.419880 -0.563588
O 0.663090 0.253570 0.580120 -0.563588
O 0.590490 0.336910 0.580120 -0.563588
O 0.746430 0.409510 0.580120 -0.563588
O 0.336910 0.746430 0.580120 -0.563588
O 0.409510 0.663090 0.580120 -0.563588
O 0.253570 0.590490 0.580120 -0.563588
O 0.746430 0.336910 0.580120 -0.563588
O 0.663090 0.409510 0.580120 -0.563588
O 0.590490 0.253570 0.580120 -0.563588
O 0.253570 0.663090 0.580120 -0.563588
O 0.336910 0.590490 0.580120 -0.563588
O 0.409510 0.746430 0.580120 -0.563588
O 0.336910 0.746430 0.419880 -0.563588
O 0.409510 0.663090 0.419880 -0.563588
O 0.253570 0.590490 0.419880 -0.563588
O 0.663090 0.253570 0.419880 -0.563588
O 0.590490 0.336910 0.419880 -0.563588
O 0.746430 0.409510 0.419880 -0.563588
C 0.380610 0.619390 0.392780 0.456345
C 0.380610 0.761230 0.392780 0.456345
C 0.761230 0.380610 0.392780 0.456345
C 0.619390 0.380610 0.392780 0.456345
C 0.619390 0.238770 0.392780 0.456345
C 0.619390 0.238770 0.607220 0.456345
C 0.619390 0.380610 0.607220 0.456345
C 0.761230 0.380610 0.607220 0.456345
C 0.380610 0.761230 0.607220 0.456345
C 0.380610 0.619390 0.607220 0.456345
C 0.238770 0.619390 0.607220 0.456345
C 0.399010 0.600990 0.326880 0.030561
C 0.399010 0.798030 0.326880 0.030561
C 0.798030 0.399010 0.326880 0.030561
C 0.600990 0.399010 0.326880 0.030561
C 0.600990 0.201970 0.326880 0.030561
C 0.600990 0.201970 0.673120 0.030561
C 0.600990 0.399010 0.673120 0.030561
C 0.798030 0.399010 0.673120 0.030561
C 0.399010 0.798030 0.673120 0.030561
C 0.399010 0.600990 0.673120 0.030561
C 0.201970 0.600990 0.673120 0.030561
C 0.447510 0.631290 0.295380 0.001822
C 0.368710 0.816230 0.295380 0.001823
C 0.816230 0.447510 0.295380 0.001822
C 0.552490 0.368710 0.295380 0.001822
C 0.631290 0.183770 0.295380 0.001823
C 0.552490 0.183770 0.704620 0.001822
C 0.631290 0.447510 0.704620 0.001822
C 0.816230 0.368710 0.704620 0.001823
C 0.447510 0.816230 0.704620 0.001822
C 0.368710 0.552490 0.704620 0.001822
C 0.183770 0.631290 0.704620 0.001823
C 0.816230 0.447510 0.704620 0.001822
C 0.552490 0.368710 0.704620 0.001822
C 0.631290 0.183770 0.704620 0.001823
C 0.183770 0.552490 0.704620 0.001822
C 0.447510 0.631290 0.704620 0.001822
C 0.368710 0.816230 0.704620 0.001823
C 0.447510 0.816230 0.295380 0.001822
C 0.368710 0.552490 0.295380 0.001822
C 0.183770 0.631290 0.295380 0.001823
C 0.552490 0.183770 0.295380 0.001822
C 0.631290 0.447510 0.295380 0.001822
C 0.816230 0.368710 0.295380 0.001823
C 0.465410 0.613390 0.234680 -0.144296
C 0.386610 0.852030 0.234680 -0.144296
C 0.852030 0.465410 0.234680 -0.144296
C 0.534590 0.386610 0.234680 -0.144296
C 0.613390 0.147970 0.234680 -0.144296
C 0.534590 0.147970 0.765320 -0.144296
C 0.613390 0.465410 0.765320 -0.144296
C 0.852030 0.386610 0.765320 -0.144296
C 0.465410 0.852030 0.765320 -0.144296
C 0.386610 0.534590 0.765320 -0.144296
C 0.147970 0.613390 0.765320 -0.144296
C 0.852030 0.465410 0.765320 -0.144296
C 0.534590 0.386610 0.765320 -0.144296
C 0.613390 0.147970 0.765320 -0.144296
C 0.147970 0.534590 0.765320 -0.144296
C 0.465410 0.613390 0.765320 -0.144296
C 0.386610 0.852030 0.765320 -0.144296
C 0.465410 0.852030 0.234680 -0.144296
C 0.386610 0.534590 0.234680 -0.144296
C 0.147970 0.613390 0.234680 -0.144296
C 0.534590 0.147970 0.234680 -0.144296
C 0.613390 0.465410 0.234680 -0.144296
C 0.852030 0.386610 0.234680 -0.144296
C 0.435110 0.564890 0.204380 0.043402
C 0.435110 0.870230 0.204380 0.043400
C 0.870230 0.435110 0.204380 0.043400
C 0.564890 0.435110 0.204380 0.043402
C 0.564890 0.129770 0.204380 0.043400
C 0.564890 0.129770 0.795620 0.043400
C 0.564890 0.435110 0.795620 0.043402
C 0.870230 0.435110 0.795620 0.043400
C 0.435110 0.870230 0.795620 0.043400
C 0.435110 0.564890 0.795620 0.043402
C 0.129770 0.564890 0.795620 0.043400
C 0.454810 0.545190 0.141880 -0.044281
C 0.454810 0.909630 0.141880 -0.044275
C 0.909630 0.454810 0.141880 -0.044275
C 0.545190 0.454810 0.141880 -0.044281
C 0.545190 0.090370 0.141880 -0.044275
C 0.545190 0.090370 0.858120 -0.044275
C 0.545190 0.454810 0.858120 -0.044281
C 0.909630 0.454810 0.858120 -0.044275
C 0.454810 0.909630 0.858120 -0.044275
C 0.454810 0.545190 0.858120 -0.044281
C 0.090370 0.545190 0.858120 -0.044275
C 0.447810 0.552190 0.063080 0.140916
C 0.447810 0.895630 0.063080 0.140928
C 0.895630 0.447810 0.063080 0.140928
C 0.552190 0.447810 0.063080 0.140916
C 0.552190 0.104370 0.063080 0.140928
C 0.552190 0.104370 0.936920 0.140928
C 0.552190 0.447810 0.936920 0.140916
C 0.895630 0.447810 0.936920 0.140928
C 0.447810 0.895630 0.936920 0.140928
C 0.447810 0.552190 0.936920 0.140916
C 0.104370 0.552190 0.936920 0.140928
C 0.422810 0.577190 0.039880 -0.072183
C 0.422810 0.845630 0.039880 -0.072182
C 0.845630 0.422810 0.039880 -0.072182
C 0.577190 0.422810 0.039880 -0.072183
C 0.577190 0.154370 0.039880 -0.072182
C 0.577190 0.154370 0.960120 -0.072182
C 0.577190 0.422810 0.960120 -0.072183
C 0.845630 0.422810 0.960120 -0.072182
C 0.422810 0.845630 0.960120 -0.072182
C 0.422810 0.577190 0.960120 -0.072183
C 0.154370 0.577190 0.960120 -0.072182
N 0.463710 0.536290 0.000000 -0.530218
N 0.463710 0.927430 0.000000 -0.530301
N 0.927430 0.463710 -0.000000 -0.530301
N 0.536290 0.463710 0.000000 -0.530218
N 0.536290 0.072570 -0.000000 -0.530301
C 0.479710 0.520290 0.163880 0.138891
C 0.479710 0.959430 0.163880 0.138928
C 0.959430 0.479710 0.163880 0.138928
C 0.520290 0.479710 0.163880 0.138891
C 0.520290 0.040570 0.163880 0.138928
C 0.520290 0.040570 0.836120 0.138928
C 0.520290 0.479710 0.836120 0.138891
C 0.959430 0.479710 0.836120 0.138928
C 0.479710 0.959430 0.836120 0.138928
C 0.479710 0.520290 0.836120 0.138891
C 0.040570 0.520290 0.836120 0.138928
C 0.487010 0.512990 0.242680 -0.065812
C 0.487010 0.974030 0.242680 -0.065829
C 0.974030 0.487010 0.242680 -0.065829
C 0.512990 0.487010 0.242680 -0.065812
C 0.512990 0.025970 0.242680 -0.065829
C 0.512990 0.025970 0.757320 -0.065829
C 0.512990 0.487010 0.757320 -0.065812
C 0.974030 0.487010 0.757320 -0.065829
C 0.487010 0.974030 0.757320 -0.065829
C 0.487010 0.512990 0.757320 -0.065812
C 0.025970 0.512990 0.757320 -0.065829
N 0.500000 0.500000 0.113580 -0.542663
N 0.500000 -0.000000 0.113580 -0.542688
N 0.500000 -0.000000 0.886420 -0.542688
N 0.500000 0.500000 0.886420 -0.542663
N 0.000000 0.500000 0.886420 -0.542688
H 0.471910 0.668790 0.318080 0.109242
H 0.331210 0.803130 0.318080 0.109242
H 0.803130 0.471910 0.318080 0.109242
H 0.528090 0.331210 0.318080 0.109242
H 0.668790 0.196870 0.318080 0.109242
H 0.528090 0.196870 0.681920 0.109242
H 0.668790 0.471910 0.681920 0.109242
H 0.803130 0.331210 0.681920 0.109242
H 0.471910 0.803130 0.681920 0.109242
H 0.331210 0.528090 0.681920 0.109242
H 0.196870 0.668790 0.681920 0.109242
H 0.803130 0.471910 0.681920 0.109242
H 0.528090 0.331210 0.681920 0.109242
H 0.668790 0.196870 0.681920 0.109242
H 0.196870 0.528090 0.681920 0.109242
H 0.471910 0.668790 0.681920 0.109242
H 0.331210 0.803130 0.681920 0.109242
H 0.471910 0.803130 0.318080 0.109242
H 0.331210 0.528090 0.318080 0.109242
H 0.196870 0.668790 0.318080 0.109242
H 0.528090 0.196870 0.318080 0.109242
H 0.668790 0.471910 0.318080 0.109242
H 0.803130 0.331210 0.318080 0.109242
H 0.502910 0.637090 0.211680 0.089079
H 0.362910 0.865830 0.211680 0.089079
H 0.865830 0.502910 0.211680 0.089079
H 0.497090 0.362910 0.211680 0.089079
H 0.637090 0.134170 0.211680 0.089079
H 0.497090 0.134170 0.788320 0.089079
H 0.637090 0.502910 0.788320 0.089079
H 0.865830 0.362910 0.788320 0.089079
H 0.502910 0.865830 0.788320 0.089079
H 0.362910 0.497090 0.788320 0.089079
H 0.134170 0.637090 0.788320 0.089079
H 0.865830 0.502910 0.788320 0.089079
H 0.497090 0.362910 0.788320 0.089079
H 0.637090 0.134170 0.788320 0.089079
H 0.134170 0.497090 0.788320 0.089079
H 0.502910 0.637090 0.788320 0.089079
H 0.362910 0.865830 0.788320 0.089079
H 0.502910 0.865830 0.211680 0.089079
H 0.362910 0.497090 0.211680 0.089079
H 0.134170 0.637090 0.211680 0.089079
H 0.497090 0.134170 0.211680 0.089079
H 0.637090 0.502910 0.211680 0.089079
H 0.865830 0.362910 0.211680 0.089079
H 0.406210 0.593790 0.077080 0.078601
H 0.406210 0.812430 0.077080 0.078600
H 0.812430 0.406210 0.077080 0.078600
H 0.593790 0.406210 0.077080 0.078601
H 0.593790 0.187570 0.077080 0.078600
H 0.593790 0.187570 0.922920 0.078600
H 0.593790 0.406210 0.922920 0.078601
H 0.812430 0.406210 0.922920 0.078600
H 0.406210 0.812430 0.922920 0.078600
H 0.406210 0.593790 0.922920 0.078601
H 0.187570 0.593790 0.922920 0.078600
H 0.475310 0.524690 0.295180 0.081392
H 0.475310 0.950630 0.295180 0.081394
H 0.950630 0.475310 0.295180 0.081394
H 0.524690 0.475310 0.295180 0.081392
H 0.524690 0.049370 0.295180 0.081394
H 0.524690 0.049370 0.704820 0.081394
H 0.524690 0.475310 0.704820 0.081392
H 0.950630 0.475310 0.704820 0.081394
H 0.475310 0.950630 0.704820 0.081394
H 0.475310 0.524690 0.704820 0.081392
H 0.049370 0.524690 0.704820 0.081394
