data_ORIWET_PM
_symmetry_space_group_name_H-M   'P 1'
_cell_length_a 26.573800
_cell_length_b 26.573800
_cell_length_c 6.808830
_cell_angle_alpha 90.000000
_cell_angle_beta 90.000000
_cell_angle_gamma 120.000000
_symmetry_Int_Tables_number 1

loop_
_symmetry_equiv_pos_as_xyz
 'x, y, z'

loop_
_atom_site_label
_atom_site_fract_x
_atom_site_fract_y
_atom_site_fract_z
_atom_site_charge
Mn 0.390720 0.351770 0.142970 0.329796
C 0.321250 0.201730 0.286650 0.013154
C 0.338970 0.218150 0.093420 0.016825
C 0.351060 0.183090 0.973440 0.016963
C 0.345420 0.131610 0.046690 0.013153
C 0.327690 0.115190 0.239910 0.016826
C 0.315610 0.150250 0.359890 0.016963
H 0.364820 0.195840 0.823380 0.060855
H 0.301850 0.137490 0.509960 0.060855
C 0.308250 0.239430 0.415700 0.007050
O 0.313340 0.285850 0.349600 -0.150379
O 0.292270 0.224630 0.589900 -0.154413
C 0.358410 0.093900 0.917700 0.007045
O 0.353340 0.047520 0.983600 -0.150391
O 0.374390 0.108710 0.743400 -0.154415
O 0.344440 0.268010 0.022500 -0.139832
O 0.322230 0.065330 0.310900 -0.139827
Mn 0.648230 0.038950 0.142970 0.329793
Mn 0.961050 0.609280 0.142970 0.329797
Mn 0.609280 0.648230 0.857030 0.329794
Mn 0.351770 0.961050 0.857030 0.329794
Mn 0.038950 0.390720 0.857030 0.329796
Mn 0.057390 0.685100 0.476300 0.329794
Mn 0.314900 0.372280 0.476300 0.329795
Mn 0.627720 0.942610 0.476300 0.329791
Mn 0.275950 0.981560 0.190360 0.329803
Mn 0.018440 0.294380 0.190360 0.329794
Mn 0.705620 0.724050 0.190360 0.329794
Mn 0.724050 0.018440 0.809640 0.329794
Mn 0.981560 0.705620 0.809640 0.329794
Mn 0.294380 0.275950 0.809640 0.329797
Mn 0.942610 0.314900 0.523700 0.329794
Mn 0.685100 0.627720 0.523700 0.329795
Mn 0.372280 0.057390 0.523700 0.329790
C 0.798270 0.119520 0.286650 0.013151
C 0.880480 0.678750 0.286650 0.013152
C 0.678750 0.798270 0.713350 0.013149
C 0.201730 0.880480 0.713350 0.013149
C 0.119520 0.321250 0.713350 0.013151
C 0.987920 0.535060 0.619980 0.013151
C 0.464940 0.452850 0.619980 0.013150
C 0.547150 0.012080 0.619980 0.013149
C 0.868400 0.213810 0.046680 0.013151
C 0.786190 0.654580 0.046680 0.013150
C 0.654580 0.868400 0.953320 0.013151
C 0.131600 0.786190 0.953320 0.013149
C 0.213810 0.345420 0.953320 0.013149
C 0.012080 0.464940 0.380020 0.013151
C 0.535060 0.547150 0.380020 0.013150
C 0.452850 0.987920 0.380020 0.013149
C 0.781850 0.120820 0.093420 0.016823
C 0.879180 0.661030 0.093420 0.016824
C 0.661030 0.781850 0.906580 0.016820
C 0.218150 0.879180 0.906580 0.016821
C 0.120820 0.338970 0.906580 0.016823
C 0.005640 0.551480 0.426750 0.016822
C 0.448520 0.454150 0.426750 0.016822
C 0.545850 0.994360 0.426750 0.016821
C 0.884820 0.212510 0.239910 0.016822
C 0.787490 0.672300 0.239910 0.016821
C 0.672300 0.884820 0.760090 0.016824
C 0.115180 0.787490 0.760090 0.016820
C 0.212510 0.327700 0.760090 0.016820
C 0.994360 0.448520 0.573250 0.016822
C 0.551480 0.545850 0.573250 0.016822
C 0.454150 0.005640 0.573250 0.016820
C 0.816910 0.167970 0.973440 0.016961
C 0.832030 0.648940 0.973440 0.016961
C 0.648940 0.816910 0.026560 0.016960
C 0.183090 0.832030 0.026560 0.016959
C 0.167970 0.351060 0.026560 0.016960
C 0.017730 0.516420 0.306770 0.016960
C 0.483580 0.501300 0.306770 0.016960
C 0.498700 0.982270 0.306770 0.016959
C 0.849760 0.165360 0.359890 0.016960
C 0.834640 0.684390 0.359890 0.016960
C 0.684390 0.849760 0.640110 0.016962
C 0.150240 0.834640 0.640110 0.016958
C 0.165360 0.315610 0.640110 0.016959
C 0.982270 0.483580 0.693230 0.016960
C 0.516420 0.498700 0.693230 0.016961
C 0.501300 0.017730 0.693230 0.016960
H 0.804160 0.168980 0.823380 0.060854
H 0.831020 0.635180 0.823380 0.060854
H 0.635180 0.804160 0.176620 0.060853
H 0.195840 0.831020 0.176620 0.060852
H 0.168980 0.364820 0.176620 0.060853
H 0.031490 0.529170 0.156710 0.060853
H 0.470830 0.502310 0.156710 0.060853
H 0.497690 0.968510 0.156710 0.060853
H 0.862510 0.164350 0.509950 0.060853
H 0.835650 0.698150 0.509950 0.060853
H 0.698150 0.862510 0.490050 0.060854
H 0.137490 0.835650 0.490050 0.060852
H 0.164350 0.301850 0.490050 0.060853
H 0.968510 0.470830 0.843290 0.060853
H 0.529170 0.497690 0.843290 0.060854
H 0.502310 0.031490 0.843290 0.060853
C 0.760570 0.068820 0.415700 0.007048
C 0.931180 0.691750 0.415700 0.007049
C 0.691750 0.760570 0.584300 0.007046
C 0.239430 0.931180 0.584300 0.007046
C 0.068820 0.308250 0.584300 0.007048
C 0.974920 0.572760 0.749030 0.007048
C 0.427240 0.402150 0.749030 0.007047
C 0.597850 0.025080 0.749030 0.007047
C 0.906100 0.264510 0.917630 0.007048
C 0.735490 0.641580 0.917630 0.007046
C 0.641580 0.906100 0.082370 0.007049
C 0.093900 0.735490 0.082370 0.007047
C 0.264510 0.358420 0.082370 0.007046
C 0.025080 0.427240 0.250970 0.007047
C 0.572760 0.597850 0.250970 0.007046
C 0.402150 0.974920 0.250970 0.007049
O 0.714150 0.027490 0.349600 -0.150382
O 0.972510 0.686660 0.349600 -0.150381
O 0.686660 0.714150 0.650400 -0.150382
O 0.285850 0.972510 0.650400 -0.150384
O 0.027490 0.313340 0.650400 -0.150382
O 0.980010 0.619180 0.682930 -0.150383
O 0.380820 0.360820 0.682930 -0.150382
O 0.639180 0.019990 0.682930 -0.150381
O 0.952520 0.305840 0.983730 -0.150381
O 0.694160 0.646670 0.983730 -0.150383
O 0.646670 0.952520 0.016270 -0.150381
O 0.047480 0.694160 0.016270 -0.150381
O 0.305840 0.353330 0.016270 -0.150383
O 0.019990 0.380820 0.317070 -0.150383
O 0.619180 0.639180 0.317070 -0.150383
O 0.360820 0.980010 0.317070 -0.150379
O 0.775370 0.067640 0.589900 -0.154413
O 0.932360 0.707730 0.589900 -0.154411
O 0.707730 0.775370 0.410100 -0.154417
O 0.224630 0.932360 0.410100 -0.154414
O 0.067640 0.292270 0.410100 -0.154412
O 0.958940 0.557960 0.923230 -0.154413
O 0.442040 0.400970 0.923230 -0.154415
O 0.599030 0.041060 0.923230 -0.154412
O 0.891300 0.265690 0.743430 -0.154412
O 0.734310 0.625600 0.743430 -0.154417
O 0.625600 0.891300 0.256570 -0.154410
O 0.108700 0.734310 0.256570 -0.154413
O 0.265690 0.374400 0.256570 -0.154418
O 0.041060 0.442040 0.076770 -0.154413
O 0.557960 0.599030 0.076770 -0.154415
O 0.400970 0.958940 0.076770 -0.154413
O 0.731990 0.076430 0.022500 -0.139831
O 0.923570 0.655560 0.022500 -0.139830
O 0.655560 0.731990 0.977500 -0.139836
O 0.268010 0.923570 0.977500 -0.139831
O 0.076430 0.344440 0.977500 -0.139831
O 0.011110 0.601340 0.355830 -0.139832
O 0.398660 0.409760 0.355830 -0.139832
O 0.590240 0.988890 0.355830 -0.139835
O 0.934680 0.256900 0.310830 -0.139835
O 0.743100 0.677770 0.310830 -0.139834
O 0.677770 0.934680 0.689170 -0.139831
O 0.065320 0.743100 0.689170 -0.139836
O 0.256900 0.322230 0.689170 -0.139835
O 0.988890 0.398660 0.644170 -0.139833
O 0.601340 0.590240 0.644170 -0.139832
O 0.409760 0.011110 0.644170 -0.139836
