data_RAVWAO_clean_PM
_symmetry_space_group_name_H-M   'P 1'
_cell_length_a 6.473900
_cell_length_b 26.553300
_cell_length_c 26.553300
_cell_angle_alpha 60.653300
_cell_angle_beta 85.338500
_cell_angle_gamma 94.661500
_symmetry_Int_Tables_number 1

loop_
_symmetry_equiv_pos_as_xyz
 'x, y, z'

loop_
_atom_site_label
_atom_site_fract_x
_atom_site_fract_y
_atom_site_fract_z
_atom_site_charge
Mg 0.914500 0.698760 0.623730 1.114662
Mg 0.538230 0.623730 0.677510 1.114662
Mg 0.215740 0.677510 0.698760 1.114662
Mg 0.085500 0.301240 0.376270 1.114662
Mg 0.461770 0.376270 0.322490 1.114662
Mg 0.784260 0.322490 0.301240 1.114662
H 0.940960 0.840850 0.602950 0.109240
H 0.696330 0.859630 0.532870 0.094675
H 0.514280 0.944730 0.494670 0.085072
H 0.082770 0.952470 0.600690 0.083345
H 0.035770 0.907100 0.446180 0.118662
H 0.052310 0.977210 0.382940 0.109443
H 0.283970 0.954930 0.417150 0.114224
H 0.543910 0.602950 0.556200 0.109240
H 0.229200 0.532870 0.607500 0.094675
H 0.008950 0.494670 0.560600 0.085072
H 0.683460 0.600690 0.446840 0.083345
H 0.481950 0.446180 0.646720 0.118662
H 0.435250 0.382940 0.639850 0.109443
H 0.701120 0.417150 0.627920 0.114224
H 0.100110 0.556200 0.840850 0.109240
H 0.836700 0.607500 0.859630 0.094675
H 0.569550 0.560600 0.944730 0.085072
H 0.130300 0.446840 0.952470 0.083345
H 0.128670 0.646720 0.907100 0.118662
H 0.075100 0.639850 0.977210 0.109443
H 0.329040 0.627920 0.954930 0.114224
H 0.059040 0.159150 0.397050 0.109240
H 0.303670 0.140370 0.467130 0.094675
H 0.485720 0.055270 0.505330 0.085072
H 0.917230 0.047530 0.399310 0.083345
H 0.964230 0.092900 0.553820 0.118662
H 0.947690 0.022790 0.617060 0.109443
H 0.716030 0.045070 0.582850 0.114224
H 0.456090 0.397050 0.443800 0.109240
H 0.770800 0.467130 0.392500 0.094675
H 0.991050 0.505330 0.439400 0.085072
H 0.316540 0.399310 0.553160 0.083345
H 0.518050 0.553820 0.353280 0.118662
H 0.564750 0.617060 0.360150 0.109443
H 0.298880 0.582850 0.372080 0.114224
H 0.899890 0.443800 0.159150 0.109240
H 0.163300 0.392500 0.140370 0.094675
H 0.430450 0.439400 0.055270 0.085072
H 0.869700 0.553160 0.047530 0.083345
H 0.871330 0.353280 0.092900 0.118662
H 0.924900 0.360150 0.022790 0.109443
H 0.670960 0.372080 0.045070 0.114224
C 0.544370 0.748940 0.613130 0.493037
C 0.423440 0.799200 0.591180 0.003537
C 0.205300 0.794750 0.609410 0.197108
C 0.105270 0.844550 0.587180 -0.066834
C 0.213550 0.898530 0.545280 0.014175
C 0.427250 0.903080 0.526550 -0.125462
C 0.530790 0.854250 0.548970 -0.067621
C 0.103510 0.950360 0.521420 0.014688
C 0.056820 0.977220 0.464040 0.071080
C 0.045510 0.973250 0.556790 -0.139345
C 0.110220 0.952790 0.425330 -0.395390
C 0.157500 0.613130 0.637930 0.493037
C 0.014620 0.591180 0.609620 0.003537
C 0.814710 0.609410 0.595840 0.197108
C 0.692450 0.587180 0.568270 -0.066834
C 0.758830 0.545280 0.556190 0.014175
C 0.953800 0.526550 0.570370 -0.125462
C 0.079760 0.548970 0.596780 -0.067621
C 0.624930 0.521420 0.528220 0.014688
C 0.520860 0.464040 0.558740 0.071080
C 0.602300 0.556790 0.469960 -0.139345
C 0.535550 0.425330 0.621880 -0.395390
C 0.795430 0.637930 0.748940 0.493037
C 0.624240 0.609620 0.799200 0.003537
C 0.410550 0.595840 0.794750 0.197108
C 0.260720 0.568270 0.844550 -0.066833
C 0.315020 0.556190 0.898530 0.014175
C 0.524170 0.570370 0.903080 -0.125461
C 0.676540 0.596780 0.854250 -0.067621
C 0.153150 0.528220 0.950360 0.014688
C 0.079600 0.558740 0.977220 0.071080
C 0.072260 0.469960 0.973250 -0.139345
C 0.157430 0.621880 0.952790 -0.395390
C 0.455630 0.251060 0.386870 0.493037
C 0.576560 0.200800 0.408820 0.003537
C 0.794700 0.205250 0.390590 0.197108
C 0.894730 0.155450 0.412820 -0.066834
C 0.786450 0.101470 0.454720 0.014175
C 0.572750 0.096920 0.473450 -0.125462
C 0.469210 0.145750 0.451030 -0.067621
C 0.896490 0.049640 0.478580 0.014688
C 0.943180 0.022780 0.535960 0.071080
C 0.954490 0.026750 0.443210 -0.139345
C 0.889780 0.047210 0.574670 -0.395390
C 0.842500 0.386870 0.362070 0.493037
C 0.985380 0.408820 0.390380 0.003537
C 0.185290 0.390590 0.404160 0.197108
C 0.307550 0.412820 0.431730 -0.066834
C 0.241170 0.454720 0.443810 0.014175
C 0.046200 0.473450 0.429630 -0.125462
C 0.920240 0.451030 0.403220 -0.067621
C 0.375070 0.478580 0.471780 0.014688
C 0.479140 0.535960 0.441260 0.071080
C 0.397700 0.443210 0.530040 -0.139345
C 0.464450 0.574670 0.378120 -0.395390
C 0.204570 0.362070 0.251060 0.493037
C 0.375760 0.390380 0.200800 0.003537
C 0.589450 0.404160 0.205250 0.197108
C 0.739280 0.431730 0.155450 -0.066833
C 0.684980 0.443810 0.101470 0.014175
C 0.475830 0.429630 0.096920 -0.125461
C 0.323460 0.403220 0.145750 -0.067621
C 0.846850 0.471780 0.049640 0.014688
C 0.920400 0.441260 0.022780 0.071080
C 0.927740 0.530040 0.026750 -0.139345
C 0.842570 0.378120 0.047210 -0.395390
O 0.738930 0.757640 0.593990 -0.559108
O 0.459490 0.698640 0.650190 -0.676799
O 0.081680 0.743360 0.650420 -0.592390
O 0.332920 0.593990 0.648370 -0.559108
O 0.109680 0.650190 0.651170 -0.676800
O 0.732100 0.650420 0.606220 -0.592389
O 0.981290 0.648370 0.757640 -0.559108
O 0.760850 0.651170 0.698640 -0.676799
O 0.338320 0.606220 0.743360 -0.592390
O 0.261070 0.242360 0.406010 -0.559108
O 0.540510 0.301360 0.349810 -0.676799
O 0.918320 0.256640 0.349580 -0.592390
O 0.667080 0.406010 0.351630 -0.559108
O 0.890320 0.349810 0.348830 -0.676800
O 0.267900 0.349580 0.393780 -0.592389
O 0.018710 0.351630 0.242360 -0.559108
O 0.239150 0.348830 0.301360 -0.676799
O 0.661680 0.393780 0.256640 -0.592390
