data_REWNEO_clean_PM
_symmetry_space_group_name_H-M   'P 1'
_cell_length_a 31.310900
_cell_length_b 31.310900
_cell_length_c 31.497700
_cell_angle_alpha 60.195900
_cell_angle_beta 60.195900
_cell_angle_gamma 90.000000
_symmetry_Int_Tables_number 1

loop_
_symmetry_equiv_pos_as_xyz
 'x, y, z'

loop_
_atom_site_label
_atom_site_fract_x
_atom_site_fract_y
_atom_site_fract_z
_atom_site_charge
Cu 0.732150 0.482250 0.745600 1.208956
Cu 0.809480 0.474250 0.663680 1.180067
Cu 0.522250 0.772150 0.745600 1.208956
Cu 0.526840 0.862070 0.663680 1.180067
Cu 0.482250 0.522250 0.745600 1.208957
Cu 0.474250 0.526840 0.663680 1.180068
Cu 0.772150 0.732150 0.745600 1.208956
Cu 0.862070 0.809480 0.663680 1.180067
Cu 0.267850 0.517750 0.254400 1.208956
Cu 0.190520 0.525750 0.336320 1.180067
Cu 0.477750 0.227850 0.254400 1.208956
Cu 0.473160 0.137930 0.336320 1.180067
Cu 0.517750 0.477750 0.254400 1.208957
Cu 0.525750 0.473160 0.336320 1.180068
Cu 0.227850 0.267850 0.254400 1.208956
Cu 0.137930 0.190520 0.336320 1.180067
Cu 0.749480 0.461480 -0.000000 1.184924
Cu 0.833500 0.449790 -0.000000 1.188194
Cu 0.250520 0.538520 0.000000 1.184924
Cu 0.166500 0.550210 0.000000 1.188194
Cu 0.461480 0.250520 0.000000 1.184924
Cu 0.449790 0.166500 -0.000000 1.188194
Cu 0.538520 0.749480 -0.000000 1.184924
Cu 0.550210 0.833500 -0.000000 1.188194
H 0.370000 0.459800 0.452000 0.144698
H 0.203300 0.458300 0.549800 0.074310
H 0.133200 0.457800 0.634000 0.109006
H 0.088400 0.459000 0.775200 0.107888
H 0.232800 0.460900 0.679600 0.108434
H 0.256000 0.488200 0.728600 0.074388
H 0.308600 0.494800 0.754000 0.127017
H 0.328100 0.516100 0.857000 0.159761
H 0.188600 0.495300 0.889400 0.141665
H 0.785000 0.446800 0.857400 0.159567
H 0.907000 0.421800 0.863200 0.136370
H 0.899100 0.434800 0.734800 0.142829
H 0.006900 0.460900 0.785000 0.076652
H 0.356500 0.474600 0.326200 0.158361
H 0.240200 0.482000 0.454800 0.128306
H 0.178000 0.088200 0.452000 0.144698
H 0.246900 0.991900 0.549800 0.074310
H 0.232800 0.908200 0.634000 0.109006
H 0.136400 0.765800 0.775200 0.107889
H 0.087600 0.859500 0.679600 0.108434
H 0.015400 0.783200 0.728600 0.074389
H 0.937400 0.751200 0.754000 0.127017
H 0.814900 0.626900 0.857000 0.159761
H 0.922000 0.615300 0.889400 0.141665
H 0.357600 0.695800 0.857400 0.159567
H 0.229800 0.715000 0.863200 0.136370
H 0.366100 0.830400 0.734800 0.142830
H 0.208100 0.754100 0.785000 0.076652
H 0.317300 0.199200 0.326200 0.158361
H 0.305000 0.063200 0.454800 0.128306
H 0.459800 0.178000 0.452000 0.144698
H 0.458300 0.246900 0.549800 0.074310
H 0.457800 0.232800 0.634000 0.109006
H 0.459000 0.136400 0.775200 0.107888
H 0.460900 0.087600 0.679600 0.108434
H 0.488200 0.015400 0.728600 0.074389
H 0.494800 0.937400 0.754000 0.127016
H 0.516100 0.814900 0.857000 0.159761
H 0.495300 0.922000 0.889400 0.141665
H 0.446800 0.357600 0.857400 0.159567
H 0.421800 0.229800 0.863200 0.136370
H 0.434800 0.366100 0.734800 0.142830
H 0.460900 0.208100 0.785000 0.076652
H 0.474600 0.317300 0.326200 0.158361
H 0.482000 0.305000 0.454800 0.128306
H 0.088200 0.370000 0.452000 0.144698
H 0.991900 0.203300 0.549800 0.074310
H 0.908200 0.133200 0.634000 0.109006
H 0.765800 0.088400 0.775200 0.107889
H 0.859500 0.232800 0.679600 0.108434
H 0.783200 0.256000 0.728600 0.074389
H 0.751200 0.308600 0.754000 0.127017
H 0.626900 0.328100 0.857000 0.159762
H 0.615300 0.188600 0.889400 0.141665
H 0.695800 0.785000 0.857400 0.159567
H 0.715000 0.907000 0.863200 0.136370
H 0.830400 0.899100 0.734800 0.142829
H 0.754100 0.006900 0.785000 0.076652
H 0.199200 0.356500 0.326200 0.158361
H 0.063200 0.240200 0.454800 0.128306
H 0.630000 0.540200 0.548000 0.144698
H 0.796700 0.541700 0.450200 0.074310
H 0.866800 0.542200 0.366000 0.109006
H 0.911600 0.541000 0.224800 0.107888
H 0.767200 0.539100 0.320400 0.108434
H 0.744000 0.511800 0.271400 0.074388
H 0.691400 0.505200 0.246000 0.127017
H 0.671900 0.483900 0.143000 0.159761
H 0.811400 0.504700 0.110600 0.141665
H 0.215000 0.553200 0.142600 0.159567
H 0.093000 0.578200 0.136800 0.136370
H 0.100900 0.565200 0.265200 0.142829
H 0.993100 0.539100 0.215000 0.076652
H 0.643500 0.525400 0.673800 0.158361
H 0.759800 0.518000 0.545200 0.128306
H 0.822000 0.911800 0.548000 0.144698
H 0.753100 0.008100 0.450200 0.074310
H 0.767200 0.091800 0.366000 0.109006
H 0.863600 0.234200 0.224800 0.107889
H 0.912400 0.140500 0.320400 0.108434
H 0.984600 0.216800 0.271400 0.074389
H 0.062600 0.248800 0.246000 0.127017
H 0.185100 0.373100 0.143000 0.159761
H 0.078000 0.384700 0.110600 0.141665
H 0.642400 0.304200 0.142600 0.159567
H 0.770200 0.285000 0.136800 0.136370
H 0.633900 0.169600 0.265200 0.142830
H 0.791900 0.245900 0.215000 0.076652
H 0.682700 0.800800 0.673800 0.158361
H 0.695000 0.936800 0.545200 0.128306
H 0.540200 0.822000 0.548000 0.144698
H 0.541700 0.753100 0.450200 0.074310
H 0.542200 0.767200 0.366000 0.109006
H 0.541000 0.863600 0.224800 0.107888
H 0.539100 0.912400 0.320400 0.108434
H 0.511800 0.984600 0.271400 0.074389
H 0.505200 0.062600 0.246000 0.127016
H 0.483900 0.185100 0.143000 0.159761
H 0.504700 0.078000 0.110600 0.141665
H 0.553200 0.642400 0.142600 0.159567
H 0.578200 0.770200 0.136800 0.136370
H 0.565200 0.633900 0.265200 0.142830
H 0.539100 0.791900 0.215000 0.076652
H 0.525400 0.682700 0.673800 0.158361
H 0.518000 0.695000 0.545200 0.128306
H 0.911800 0.630000 0.548000 0.144698
H 0.008100 0.796700 0.450200 0.074310
H 0.091800 0.866800 0.366000 0.109006
H 0.234200 0.911600 0.224800 0.107889
H 0.140500 0.767200 0.320400 0.108434
H 0.216800 0.744000 0.271400 0.074389
H 0.248800 0.691400 0.246000 0.127017
H 0.373100 0.671900 0.143000 0.159762
H 0.384700 0.811400 0.110600 0.141665
H 0.304200 0.215000 0.142600 0.159567
H 0.285000 0.093000 0.136800 0.136370
H 0.169600 0.100900 0.265200 0.142829
H 0.245900 0.993100 0.215000 0.076652
H 0.800800 0.643500 0.673800 0.158361
H 0.936800 0.759800 0.545200 0.128306
C 0.428700 0.470900 0.348600 0.509287
C 0.372300 0.474200 0.383200 0.046523
C 0.351900 0.467000 0.434000 -0.061184
C 0.303800 0.470200 0.460800 0.089189
C 0.231600 0.461100 0.552600 0.057198
C 0.231600 0.459700 0.599800 0.102360
C 0.187100 0.449100 0.654400 0.040857
C 0.137400 0.449800 0.664400 -0.128570
C 0.099900 0.440300 0.712000 0.047086
C 0.114900 0.456900 0.744800 -0.114590
C 0.161600 0.467600 0.731800 0.036404
C 0.199600 0.459300 0.687000 -0.105557
C 0.169000 0.471200 0.769000 0.085899
C 0.223100 0.483700 0.759000 0.050876
C 0.239300 0.497000 0.820000 0.101190
C 0.296200 0.500800 0.783800 -0.071403
C 0.330100 0.513800 0.797000 0.043539
C 0.308300 0.517400 0.842000 -0.044257
C 0.259600 0.523100 0.871400 0.052890
C 0.224500 0.503700 0.862600 -0.057441
C 0.240600 0.530500 0.918600 0.466178
C 0.812000 0.458500 0.760800 0.459281
C 0.839900 0.445400 0.790000 0.046767
C 0.818600 0.444300 0.839600 -0.023367
C 0.846500 0.439300 0.866000 0.047462
C 0.891600 0.431900 0.842000 -0.091916
C 0.917600 0.438000 0.788000 0.093848
C 0.886600 0.438800 0.766200 -0.048510
C 0.826200 0.439200 0.916600 0.429079
C 0.005000 0.444400 0.767600 0.034048
C 0.380800 0.518000 0.763800 0.429211
C 0.043600 0.429900 0.732200 0.104850
C 0.343800 0.477900 0.358000 -0.026868
C 0.298000 0.486200 0.381800 0.046454
C 0.273800 0.480000 0.435600 -0.077443
C 0.272300 0.496700 0.351800 0.445164
C 0.222700 0.180500 0.348600 0.509289
C 0.244500 0.142600 0.383200 0.046523
C 0.214100 0.099000 0.434000 -0.061184
C 0.235400 0.069000 0.460800 0.089189
C 0.215800 0.986300 0.552600 0.057198
C 0.168600 0.940500 0.599800 0.102360
C 0.158500 0.896500 0.654400 0.040858
C 0.198200 0.885800 0.664400 -0.128570
C 0.188100 0.847700 0.712000 0.047086
C 0.140300 0.798300 0.744800 -0.114590
C 0.106600 0.800600 0.731800 0.036404
C 0.113400 0.853700 0.687000 -0.105558
C 0.062000 0.759800 0.769000 0.085899
C 0.017900 0.757300 0.759000 0.050876
C 0.940700 0.683000 0.820000 0.101191
C 0.920000 0.715400 0.783800 -0.071403
C 0.872900 0.689200 0.797000 0.043539
C 0.849700 0.640600 0.842000 -0.044257
C 0.869000 0.605500 0.871400 0.052890
C 0.912900 0.633700 0.862600 -0.057439
C 0.840800 0.550900 0.918600 0.466179
C 0.427200 0.780700 0.760800 0.459282
C 0.370100 0.764600 0.790000 0.046768
C 0.341800 0.716100 0.839600 -0.023366
C 0.287500 0.694700 0.866000 0.047461
C 0.266400 0.726100 0.842000 -0.091916
C 0.294400 0.774000 0.788000 0.093848
C 0.347200 0.795000 0.766200 -0.048510
C 0.257200 0.644200 0.916600 0.429081
C 0.227400 0.788000 0.767600 0.034048
C 0.855400 0.718200 0.763800 0.429212
C 0.224200 0.837900 0.732200 0.104850
C 0.298200 0.164100 0.358000 -0.026868
C 0.320200 0.132000 0.381800 0.046454
C 0.290600 0.084400 0.435600 -0.077442
C 0.375900 0.151500 0.351800 0.445165
C 0.470900 0.222700 0.348600 0.509287
C 0.474200 0.244500 0.383200 0.046523
C 0.467000 0.214100 0.434000 -0.061185
C 0.470200 0.235400 0.460800 0.089189
C 0.461100 0.215800 0.552600 0.057198
C 0.459700 0.168600 0.599800 0.102360
C 0.449100 0.158500 0.654400 0.040857
C 0.449800 0.198200 0.664400 -0.128569
C 0.440300 0.188100 0.712000 0.047085
C 0.456900 0.140300 0.744800 -0.114590
C 0.467600 0.106600 0.731800 0.036405
C 0.459300 0.113400 0.687000 -0.105558
C 0.471200 0.062000 0.769000 0.085899
C 0.483700 0.017900 0.759000 0.050876
C 0.497000 0.940700 0.820000 0.101190
C 0.500800 0.920000 0.783800 -0.071403
C 0.513800 0.872900 0.797000 0.043539
C 0.517400 0.849700 0.842000 -0.044258
C 0.523100 0.869000 0.871400 0.052890
C 0.503700 0.912900 0.862600 -0.057440
C 0.530500 0.840800 0.918600 0.466178
C 0.458500 0.427200 0.760800 0.459281
C 0.445400 0.370100 0.790000 0.046767
C 0.444300 0.341800 0.839600 -0.023366
C 0.439300 0.287500 0.866000 0.047462
C 0.431900 0.266400 0.842000 -0.091917
C 0.438000 0.294400 0.788000 0.093848
C 0.438800 0.347200 0.766200 -0.048509
C 0.439200 0.257200 0.916600 0.429080
C 0.444400 0.227400 0.767600 0.034048
C 0.518000 0.855400 0.763800 0.429211
C 0.429900 0.224200 0.732200 0.104850
C 0.477900 0.298200 0.358000 -0.026868
C 0.486200 0.320200 0.381800 0.046454
C 0.480000 0.290600 0.435600 -0.077442
C 0.496700 0.375900 0.351800 0.445164
C 0.180500 0.428700 0.348600 0.509289
C 0.142600 0.372300 0.383200 0.046523
C 0.099000 0.351900 0.434000 -0.061184
C 0.069000 0.303800 0.460800 0.089189
C 0.986300 0.231600 0.552600 0.057198
C 0.940500 0.231600 0.599800 0.102361
C 0.896500 0.187100 0.654400 0.040858
C 0.885800 0.137400 0.664400 -0.128570
C 0.847700 0.099900 0.712000 0.047086
C 0.798300 0.114900 0.744800 -0.114590
C 0.800600 0.161600 0.731800 0.036404
C 0.853700 0.199600 0.687000 -0.105558
C 0.759800 0.169000 0.769000 0.085899
C 0.757300 0.223100 0.759000 0.050876
C 0.683000 0.239300 0.820000 0.101190
C 0.715400 0.296200 0.783800 -0.071403
C 0.689200 0.330100 0.797000 0.043539
C 0.640600 0.308300 0.842000 -0.044257
C 0.605500 0.259600 0.871400 0.052890
C 0.633700 0.224500 0.862600 -0.057440
C 0.550900 0.240600 0.918600 0.466179
C 0.780700 0.812000 0.760800 0.459282
C 0.764600 0.839900 0.790000 0.046767
C 0.716100 0.818600 0.839600 -0.023366
C 0.694700 0.846500 0.866000 0.047462
C 0.726100 0.891600 0.842000 -0.091916
C 0.774000 0.917600 0.788000 0.093848
C 0.795000 0.886600 0.766200 -0.048510
C 0.644200 0.826200 0.916600 0.429080
C 0.788000 0.005000 0.767600 0.034048
C 0.718200 0.380800 0.763800 0.429213
C 0.837900 0.043600 0.732200 0.104850
C 0.164100 0.343800 0.358000 -0.026868
C 0.132000 0.298000 0.381800 0.046454
C 0.084400 0.273800 0.435600 -0.077442
C 0.151500 0.272300 0.351800 0.445165
C 0.571300 0.529100 0.651400 0.509287
C 0.627700 0.525800 0.616800 0.046523
C 0.648100 0.533000 0.566000 -0.061184
C 0.696200 0.529800 0.539200 0.089189
C 0.768400 0.538900 0.447400 0.057198
C 0.768400 0.540300 0.400200 0.102360
C 0.812900 0.550900 0.345600 0.040857
C 0.862600 0.550200 0.335600 -0.128570
C 0.900100 0.559700 0.288000 0.047086
C 0.885100 0.543100 0.255200 -0.114590
C 0.838400 0.532400 0.268200 0.036404
C 0.800400 0.540700 0.313000 -0.105557
C 0.831000 0.528800 0.231000 0.085899
C 0.776900 0.516300 0.241000 0.050876
C 0.760700 0.503000 0.180000 0.101190
C 0.703800 0.499200 0.216200 -0.071403
C 0.669900 0.486200 0.203000 0.043539
C 0.691700 0.482600 0.158000 -0.044257
C 0.740400 0.476900 0.128600 0.052890
C 0.775500 0.496300 0.137400 -0.057441
C 0.759400 0.469500 0.081400 0.466178
C 0.188000 0.541500 0.239200 0.459281
C 0.160100 0.554600 0.210000 0.046767
C 0.181400 0.555700 0.160400 -0.023367
C 0.153500 0.560700 0.134000 0.047462
C 0.108400 0.568100 0.158000 -0.091916
C 0.082400 0.562000 0.212000 0.093848
C 0.113400 0.561200 0.233800 -0.048510
C 0.173800 0.560800 0.083400 0.429079
C 0.995000 0.555600 0.232400 0.034048
C 0.619200 0.482000 0.236200 0.429211
C 0.956400 0.570100 0.267800 0.104850
C 0.656200 0.522100 0.642000 -0.026868
C 0.702000 0.513800 0.618200 0.046454
C 0.726200 0.520000 0.564400 -0.077443
C 0.727700 0.503300 0.648200 0.445164
C 0.777300 0.819500 0.651400 0.509289
C 0.755500 0.857400 0.616800 0.046523
C 0.785900 0.901000 0.566000 -0.061184
C 0.764600 0.931000 0.539200 0.089189
C 0.784200 0.013700 0.447400 0.057198
C 0.831400 0.059500 0.400200 0.102360
C 0.841500 0.103500 0.345600 0.040858
C 0.801800 0.114200 0.335600 -0.128570
C 0.811900 0.152300 0.288000 0.047086
C 0.859700 0.201700 0.255200 -0.114590
C 0.893400 0.199400 0.268200 0.036404
C 0.886600 0.146300 0.313000 -0.105558
C 0.938000 0.240200 0.231000 0.085899
C 0.982100 0.242700 0.241000 0.050876
C 0.059300 0.317000 0.180000 0.101191
C 0.080000 0.284600 0.216200 -0.071403
C 0.127100 0.310800 0.203000 0.043539
C 0.150300 0.359400 0.158000 -0.044257
C 0.131000 0.394500 0.128600 0.052890
C 0.087100 0.366300 0.137400 -0.057439
C 0.159200 0.449100 0.081400 0.466179
C 0.572800 0.219300 0.239200 0.459282
C 0.629900 0.235400 0.210000 0.046768
C 0.658200 0.283900 0.160400 -0.023366
C 0.712500 0.305300 0.134000 0.047461
C 0.733600 0.273900 0.158000 -0.091916
C 0.705600 0.226000 0.212000 0.093848
C 0.652800 0.205000 0.233800 -0.048510
C 0.742800 0.355800 0.083400 0.429081
C 0.772600 0.212000 0.232400 0.034048
C 0.144600 0.281800 0.236200 0.429212
C 0.775800 0.162100 0.267800 0.104850
C 0.701800 0.835900 0.642000 -0.026868
C 0.679800 0.868000 0.618200 0.046454
C 0.709400 0.915600 0.564400 -0.077442
C 0.624100 0.848500 0.648200 0.445165
C 0.529100 0.777300 0.651400 0.509287
C 0.525800 0.755500 0.616800 0.046523
C 0.533000 0.785900 0.566000 -0.061185
C 0.529800 0.764600 0.539200 0.089189
C 0.538900 0.784200 0.447400 0.057198
C 0.540300 0.831400 0.400200 0.102360
C 0.550900 0.841500 0.345600 0.040857
C 0.550200 0.801800 0.335600 -0.128569
C 0.559700 0.811900 0.288000 0.047085
C 0.543100 0.859700 0.255200 -0.114590
C 0.532400 0.893400 0.268200 0.036405
C 0.540700 0.886600 0.313000 -0.105558
C 0.528800 0.938000 0.231000 0.085899
C 0.516300 0.982100 0.241000 0.050876
C 0.503000 0.059300 0.180000 0.101190
C 0.499200 0.080000 0.216200 -0.071403
C 0.486200 0.127100 0.203000 0.043539
C 0.482600 0.150300 0.158000 -0.044258
C 0.476900 0.131000 0.128600 0.052890
C 0.496300 0.087100 0.137400 -0.057440
C 0.469500 0.159200 0.081400 0.466178
C 0.541500 0.572800 0.239200 0.459281
C 0.554600 0.629900 0.210000 0.046767
C 0.555700 0.658200 0.160400 -0.023366
C 0.560700 0.712500 0.134000 0.047462
C 0.568100 0.733600 0.158000 -0.091917
C 0.562000 0.705600 0.212000 0.093848
C 0.561200 0.652800 0.233800 -0.048509
C 0.560800 0.742800 0.083400 0.429080
C 0.555600 0.772600 0.232400 0.034048
C 0.482000 0.144600 0.236200 0.429211
C 0.570100 0.775800 0.267800 0.104850
C 0.522100 0.701800 0.642000 -0.026868
C 0.513800 0.679800 0.618200 0.046454
C 0.520000 0.709400 0.564400 -0.077442
C 0.503300 0.624100 0.648200 0.445164
C 0.819500 0.571300 0.651400 0.509289
C 0.857400 0.627700 0.616800 0.046523
C 0.901000 0.648100 0.566000 -0.061184
C 0.931000 0.696200 0.539200 0.089189
C 0.013700 0.768400 0.447400 0.057198
C 0.059500 0.768400 0.400200 0.102361
C 0.103500 0.812900 0.345600 0.040858
C 0.114200 0.862600 0.335600 -0.128570
C 0.152300 0.900100 0.288000 0.047086
C 0.201700 0.885100 0.255200 -0.114590
C 0.199400 0.838400 0.268200 0.036404
C 0.146300 0.800400 0.313000 -0.105558
C 0.240200 0.831000 0.231000 0.085899
C 0.242700 0.776900 0.241000 0.050876
C 0.317000 0.760700 0.180000 0.101190
C 0.284600 0.703800 0.216200 -0.071403
C 0.310800 0.669900 0.203000 0.043539
C 0.359400 0.691700 0.158000 -0.044257
C 0.394500 0.740400 0.128600 0.052890
C 0.366300 0.775500 0.137400 -0.057440
C 0.449100 0.759400 0.081400 0.466179
C 0.219300 0.188000 0.239200 0.459282
C 0.235400 0.160100 0.210000 0.046767
C 0.283900 0.181400 0.160400 -0.023366
C 0.305300 0.153500 0.134000 0.047462
C 0.273900 0.108400 0.158000 -0.091916
C 0.226000 0.082400 0.212000 0.093848
C 0.205000 0.113400 0.233800 -0.048510
C 0.355800 0.173800 0.083400 0.429080
C 0.212000 0.995000 0.232400 0.034048
C 0.281800 0.619200 0.236200 0.429213
C 0.162100 0.956400 0.267800 0.104850
C 0.835900 0.656200 0.642000 -0.026868
C 0.868000 0.702000 0.618200 0.046454
C 0.915600 0.726200 0.564400 -0.077442
C 0.848500 0.727700 0.648200 0.445165
N 0.276400 0.466600 0.518000 -0.205936
N 0.313100 0.483500 0.526200 0.000039
N 0.273700 0.465500 0.584600 -0.161609
N 0.137100 0.457200 0.822800 -0.140677
N 0.159300 0.461100 0.847600 0.005346
N 0.210600 0.486100 0.803000 -0.215110
N 0.964600 0.426600 0.768000 -0.197361
N 0.980500 0.415900 0.726400 0.002446
N 0.030600 0.416100 0.711400 -0.156171
N 0.205600 0.015400 0.518000 -0.205936
N 0.160700 0.990300 0.526200 0.000039
N 0.141700 0.949900 0.584600 -0.161609
N 0.040100 0.720000 0.822800 -0.140677
N 0.993100 0.691300 0.847600 0.005346
N 0.986400 0.710900 0.803000 -0.215111
N 0.267400 0.805400 0.768000 -0.197361
N 0.293100 0.857700 0.726400 0.002446
N 0.258000 0.872500 0.711400 -0.156171
N 0.466600 0.205600 0.518000 -0.205936
N 0.483500 0.160700 0.526200 0.000039
N 0.465500 0.141700 0.584600 -0.161608
N 0.457200 0.040100 0.822800 -0.140677
N 0.461100 0.993100 0.847600 0.005346
N 0.486100 0.986400 0.803000 -0.215111
N 0.426600 0.267400 0.768000 -0.197360
N 0.415900 0.293100 0.726400 0.002446
N 0.416100 0.258000 0.711400 -0.156171
N 0.015400 0.276400 0.518000 -0.205937
N 0.990300 0.313100 0.526200 0.000039
N 0.949900 0.273700 0.584600 -0.161609
N 0.720000 0.137100 0.822800 -0.140677
N 0.691300 0.159300 0.847600 0.005346
N 0.710900 0.210600 0.803000 -0.215111
N 0.805400 0.964600 0.768000 -0.197361
N 0.857700 0.980500 0.726400 0.002446
N 0.872500 0.030600 0.711400 -0.156171
N 0.723600 0.533400 0.482000 -0.205936
N 0.686900 0.516500 0.473800 0.000039
N 0.726300 0.534500 0.415400 -0.161609
N 0.862900 0.542800 0.177200 -0.140677
N 0.840700 0.538900 0.152400 0.005346
N 0.789400 0.513900 0.197000 -0.215110
N 0.035400 0.573400 0.232000 -0.197361
N 0.019500 0.584100 0.273600 0.002446
N 0.969400 0.583900 0.288600 -0.156171
N 0.794400 0.984600 0.482000 -0.205936
N 0.839300 0.009700 0.473800 0.000039
N 0.858300 0.050100 0.415400 -0.161609
N 0.959900 0.280000 0.177200 -0.140677
N 0.006900 0.308700 0.152400 0.005346
N 0.013600 0.289100 0.197000 -0.215111
N 0.732600 0.194600 0.232000 -0.197361
N 0.706900 0.142300 0.273600 0.002446
N 0.742000 0.127500 0.288600 -0.156171
N 0.533400 0.794400 0.482000 -0.205936
N 0.516500 0.839300 0.473800 0.000039
N 0.534500 0.858300 0.415400 -0.161608
N 0.542800 0.959900 0.177200 -0.140677
N 0.538900 0.006900 0.152400 0.005346
N 0.513900 0.013600 0.197000 -0.215111
N 0.573400 0.732600 0.232000 -0.197360
N 0.584100 0.706900 0.273600 0.002446
N 0.583900 0.742000 0.288600 -0.156171
N 0.984600 0.723600 0.482000 -0.205937
N 0.009700 0.686900 0.473800 0.000039
N 0.050100 0.726300 0.415400 -0.161609
N 0.280000 0.862900 0.177200 -0.140677
N 0.308700 0.840700 0.152400 0.005346
N 0.289100 0.789400 0.197000 -0.215111
N 0.194600 0.035400 0.232000 -0.197361
N 0.142300 0.019500 0.273600 0.002446
N 0.127500 0.969400 0.288600 -0.156171
O 0.447160 0.475020 0.303160 -0.673104
O 0.451480 0.464000 0.375600 -0.632390
O 0.767320 0.458540 0.786640 -0.616211
O 0.835890 0.456320 0.713160 -0.607128
O 0.413130 0.520490 0.780380 -0.599246
O 0.401880 0.517070 0.716060 -0.605497
O 0.291750 0.497210 0.304700 -0.614654
O 0.227770 0.506730 0.374940 -0.589708
O 0.778310 0.446730 0.939340 -0.565837
O 0.851900 0.438400 0.938200 -0.624002
O 0.267970 0.526920 0.939460 -0.619221
O 0.195590 0.535140 0.940360 -0.623336
O 0.249680 0.221820 0.303160 -0.673105
O 0.172920 0.160400 0.375600 -0.632390
O 0.446040 0.754820 0.786640 -0.616213
O 0.450950 0.830520 0.713160 -0.607131
O 0.806490 0.699130 0.780380 -0.599246
O 0.882060 0.766870 0.716060 -0.605497
O 0.403550 0.198090 0.304700 -0.614656
O 0.397290 0.118330 0.374940 -0.589711
O 0.282350 0.613930 0.939340 -0.565839
O 0.209900 0.623400 0.938200 -0.624005
O 0.792570 0.533620 0.939460 -0.619224
O 0.864050 0.524500 0.940360 -0.623338
O 0.475020 0.249680 0.303160 -0.673103
O 0.464000 0.172920 0.375600 -0.632389
O 0.458540 0.446040 0.786640 -0.616212
O 0.456320 0.450950 0.713160 -0.607130
O 0.520490 0.806490 0.780380 -0.599245
O 0.517070 0.882060 0.716060 -0.605495
O 0.497210 0.403550 0.304700 -0.614655
O 0.506730 0.397290 0.374940 -0.589710
O 0.446730 0.282350 0.939340 -0.565837
O 0.438400 0.209900 0.938200 -0.624002
O 0.526920 0.792570 0.939460 -0.619221
O 0.535140 0.864050 0.940360 -0.623336
O 0.221820 0.447160 0.303160 -0.673106
O 0.160400 0.451480 0.375600 -0.632392
O 0.754820 0.767320 0.786640 -0.616212
O 0.830520 0.835890 0.713160 -0.607130
O 0.699130 0.413130 0.780380 -0.599247
O 0.766870 0.401880 0.716060 -0.605498
O 0.198090 0.291750 0.304700 -0.614655
O 0.118330 0.227770 0.374940 -0.589710
O 0.613930 0.778310 0.939340 -0.565839
O 0.623400 0.851900 0.938200 -0.624004
O 0.533620 0.267970 0.939460 -0.619223
O 0.524500 0.195590 0.940360 -0.623338
O 0.552840 0.524980 0.696840 -0.673104
O 0.548520 0.536000 0.624400 -0.632390
O 0.232680 0.541460 0.213360 -0.616211
O 0.164110 0.543680 0.286840 -0.607128
O 0.586870 0.479510 0.219620 -0.599246
O 0.598120 0.482930 0.283940 -0.605497
O 0.708250 0.502790 0.695300 -0.614654
O 0.772230 0.493270 0.625060 -0.589708
O 0.221690 0.553270 0.060660 -0.565837
O 0.148100 0.561600 0.061800 -0.624002
O 0.732030 0.473080 0.060540 -0.619221
O 0.804410 0.464860 0.059640 -0.623336
O 0.750320 0.778180 0.696840 -0.673105
O 0.827080 0.839600 0.624400 -0.632390
O 0.553960 0.245180 0.213360 -0.616213
O 0.549050 0.169480 0.286840 -0.607131
O 0.193510 0.300870 0.219620 -0.599246
O 0.117940 0.233130 0.283940 -0.605497
O 0.596450 0.801910 0.695300 -0.614656
O 0.602710 0.881670 0.625060 -0.589711
O 0.717650 0.386070 0.060660 -0.565839
O 0.790100 0.376600 0.061800 -0.624005
O 0.207430 0.466380 0.060540 -0.619224
O 0.135950 0.475500 0.059640 -0.623338
O 0.524980 0.750320 0.696840 -0.673103
O 0.536000 0.827080 0.624400 -0.632389
O 0.541460 0.553960 0.213360 -0.616212
O 0.543680 0.549050 0.286840 -0.607130
O 0.479510 0.193510 0.219620 -0.599245
O 0.482930 0.117940 0.283940 -0.605495
O 0.502790 0.596450 0.695300 -0.614655
O 0.493270 0.602710 0.625060 -0.589710
O 0.553270 0.717650 0.060660 -0.565837
O 0.561600 0.790100 0.061800 -0.624002
O 0.473080 0.207430 0.060540 -0.619221
O 0.464860 0.135950 0.059640 -0.623336
O 0.778180 0.552840 0.696840 -0.673106
O 0.839600 0.548520 0.624400 -0.632392
O 0.245180 0.232680 0.213360 -0.616212
O 0.169480 0.164110 0.286840 -0.607130
O 0.300870 0.586870 0.219620 -0.599247
O 0.233130 0.598120 0.283940 -0.605498
O 0.801910 0.708250 0.695300 -0.614655
O 0.881670 0.772230 0.625060 -0.589710
O 0.386070 0.221690 0.060660 -0.565839
O 0.376600 0.148100 0.061800 -0.624004
O 0.466380 0.732030 0.060540 -0.619223
O 0.475500 0.804410 0.059640 -0.623338
