data_RUBTAK01_clean_h_PM
_symmetry_space_group_name_H-M   'P 1'
_cell_length_a 14.817400
_cell_length_b 14.817400
_cell_length_c 14.817400
_cell_angle_alpha 60.000000
_cell_angle_beta 60.000000
_cell_angle_gamma 60.000000
_symmetry_Int_Tables_number 1

loop_
_symmetry_equiv_pos_as_xyz
 'x, y, z'

loop_
_atom_site_label
_atom_site_fract_x
_atom_site_fract_y
_atom_site_fract_z
_atom_site_charge
Zr 0.876300 0.876300 0.123700 2.499152
Zr 0.123700 0.123700 0.876300 2.499152
Zr 0.876300 0.123700 0.123700 2.499152
Zr 0.123700 0.876300 0.876300 2.499152
Zr 0.876300 0.123700 0.876300 2.499152
Zr 0.123700 0.876300 0.123700 2.499152
C 0.552300 0.077500 0.447700 -0.055861
C 0.077500 0.552300 0.922500 -0.055851
C 0.447700 0.922500 0.552300 -0.055859
C 0.922500 0.447700 0.077500 -0.055851
C 0.552300 0.447700 0.922500 -0.055860
C 0.077500 0.922500 0.447700 -0.055849
C 0.447700 0.552300 0.077500 -0.055860
C 0.922500 0.077500 0.552300 -0.055855
C 0.552300 0.922500 0.077500 -0.055852
C 0.077500 0.447700 0.552300 -0.055859
C 0.447700 0.077500 0.922500 -0.055851
C 0.922500 0.552300 0.447700 -0.055864
C 0.922500 0.447700 0.552300 -0.055858
C 0.447700 0.922500 0.077500 -0.055850
C 0.077500 0.552300 0.447700 -0.055861
C 0.552300 0.077500 0.922500 -0.055851
C 0.552300 0.447700 0.077500 -0.055860
C 0.077500 0.922500 0.552300 -0.055855
C 0.447700 0.552300 0.922500 -0.055860
C 0.922500 0.077500 0.447700 -0.055849
C 0.077500 0.447700 0.922500 -0.055851
C 0.552300 0.922500 0.447700 -0.055864
C 0.922500 0.552300 0.077500 -0.055851
C 0.447700 0.077500 0.552300 -0.055861
C 0.687400 0.000000 0.312600 0.571592
C 0.593400 0.000000 0.406600 0.044871
C 0.000000 0.687400 -0.000000 0.571602
C 0.000000 0.593400 -0.000000 0.044868
C 0.312600 0.000000 0.687400 0.571592
C 0.406600 0.000000 0.593400 0.044870
C 0.000000 0.312600 -0.000000 0.571602
C 0.000000 0.406600 -0.000000 0.044868
C 0.687400 0.312600 -0.000000 0.571592
C 0.593400 0.406600 -0.000000 0.044870
C 0.000000 0.000000 0.312600 0.571602
C 0.000000 0.000000 0.406600 0.044868
C 0.312600 0.687400 -0.000000 0.571592
C 0.406600 0.593400 -0.000000 0.044870
C 0.000000 0.000000 0.687400 0.571602
C 0.000000 0.000000 0.593400 0.044871
C 0.687400 0.000000 -0.000000 0.571602
C 0.593400 0.000000 -0.000000 0.044869
C 0.000000 0.312600 0.687400 0.571593
C 0.000000 0.406600 0.593400 0.044869
C 0.312600 0.000000 -0.000000 0.571602
C 0.406600 0.000000 -0.000000 0.044868
C 0.000000 0.687400 0.312600 0.571592
C 0.000000 0.593400 0.406600 0.044872
O 0.786400 0.071200 0.071200 -1.063796
O 0.071200 0.786400 0.071200 -1.063796
O 0.071200 0.071200 0.786400 -1.063796
O 0.071200 0.071200 0.071200 -1.063793
O 0.928800 0.213600 0.928800 -1.063796
O 0.213600 0.928800 0.928800 -1.063796
O 0.928800 0.928800 0.213600 -1.063796
O 0.928800 0.928800 0.928800 -1.063793
O 0.726900 0.924500 0.273100 -0.626071
O 0.924500 0.726900 0.075500 -0.626080
O 0.273100 0.075500 0.726900 -0.626072
O 0.075500 0.273100 0.924500 -0.626080
O 0.726900 0.273100 0.075500 -0.626072
O 0.924500 0.075500 0.273100 -0.626080
O 0.273100 0.726900 0.924500 -0.626072
O 0.075500 0.924500 0.726900 -0.626080
O 0.726900 0.075500 0.924500 -0.626080
O 0.924500 0.273100 0.726900 -0.626072
O 0.273100 0.924500 0.075500 -0.626080
O 0.075500 0.726900 0.273100 -0.626072
O 0.075500 0.273100 0.726900 -0.626072
O 0.273100 0.075500 0.924500 -0.626080
O 0.924500 0.726900 0.273100 -0.626071
O 0.726900 0.924500 0.075500 -0.626080
O 0.726900 0.273100 0.924500 -0.626072
O 0.924500 0.075500 0.726900 -0.626080
O 0.273100 0.726900 0.075500 -0.626072
O 0.075500 0.924500 0.273100 -0.626080
O 0.924500 0.273100 0.075500 -0.626080
O 0.726900 0.075500 0.273100 -0.626072
O 0.075500 0.726900 0.924500 -0.626080
O 0.273100 0.924500 0.726900 -0.626072
H 0.590770 0.144130 0.409230 0.103509
H 0.144130 0.590770 0.855870 0.103510
H 0.409230 0.855870 0.590770 0.103508
H 0.855870 0.409230 0.144130 0.103509
H 0.590770 0.409230 0.855870 0.103508
H 0.144130 0.855870 0.409230 0.103509
H 0.409230 0.590770 0.144130 0.103508
H 0.855870 0.144130 0.590770 0.103510
H 0.590770 0.855870 0.144130 0.103510
H 0.144130 0.409230 0.590770 0.103508
H 0.409230 0.144130 0.855870 0.103510
H 0.855870 0.590770 0.409230 0.103509
H 0.855870 0.409230 0.590770 0.103508
H 0.409230 0.855870 0.144130 0.103509
H 0.144130 0.590770 0.409230 0.103508
H 0.590770 0.144130 0.855870 0.103510
H 0.590770 0.409230 0.144130 0.103508
H 0.144130 0.855870 0.590770 0.103511
H 0.409230 0.590770 0.855870 0.103508
H 0.855870 0.144130 0.409230 0.103510
H 0.144130 0.409230 0.855870 0.103510
H 0.590770 0.855870 0.409230 0.103509
H 0.855870 0.590770 0.144130 0.103510
H 0.409230 0.144130 0.590770 0.103509
