data_RUBTAK02_clean_h_PM
_symmetry_space_group_name_H-M   'P 1'
_cell_length_a 14.667500
_cell_length_b 14.667500
_cell_length_c 14.667500
_cell_angle_alpha 60.000000
_cell_angle_beta 60.000000
_cell_angle_gamma 60.000000
_symmetry_Int_Tables_number 1

loop_
_symmetry_equiv_pos_as_xyz
 'x, y, z'

loop_
_atom_site_label
_atom_site_fract_x
_atom_site_fract_y
_atom_site_fract_z
_atom_site_charge
Zr 0.879600 0.120400 0.120400 3.005644
Zr 0.120400 0.879600 0.879600 3.005644
Zr 0.879600 0.120400 0.879600 3.005644
Zr 0.120400 0.879600 0.120400 3.005644
Zr 0.879600 0.879600 0.120400 3.005644
Zr 0.120400 0.120400 0.879600 3.005644
C 0.551600 0.080200 0.448400 -0.058149
C 0.080200 0.551600 0.919800 -0.058139
C 0.448400 0.919800 0.551600 -0.058155
C 0.919800 0.448400 0.080200 -0.058141
C 0.551600 0.448400 0.919800 -0.058150
C 0.080200 0.919800 0.448400 -0.058138
C 0.448400 0.551600 0.080200 -0.058151
C 0.919800 0.080200 0.551600 -0.058136
C 0.551600 0.919800 0.080200 -0.058138
C 0.080200 0.448400 0.551600 -0.058148
C 0.448400 0.080200 0.919800 -0.058135
C 0.919800 0.551600 0.448400 -0.058148
C 0.919800 0.448400 0.551600 -0.058154
C 0.448400 0.919800 0.080200 -0.058136
C 0.080200 0.551600 0.448400 -0.058154
C 0.551600 0.080200 0.919800 -0.058141
C 0.551600 0.448400 0.080200 -0.058150
C 0.080200 0.919800 0.551600 -0.058136
C 0.448400 0.551600 0.919800 -0.058151
C 0.919800 0.080200 0.448400 -0.058138
C 0.080200 0.448400 0.919800 -0.058135
C 0.551600 0.919800 0.448400 -0.058147
C 0.919800 0.551600 0.080200 -0.058134
C 0.448400 0.080200 0.551600 -0.058151
C 0.705400 0.000000 0.294600 0.728832
C 0.596200 -0.000000 0.403800 0.066702
C 0.000000 0.705400 0.000000 0.728841
C 0.000000 0.596200 0.000000 0.066700
C 0.294600 0.000000 0.705400 0.728832
C 0.403800 0.000000 0.596200 0.066705
C 0.000000 0.294600 0.000000 0.728841
C 0.000000 0.403800 0.000000 0.066702
C 0.705400 0.294600 0.000000 0.728832
C 0.596200 0.403800 0.000000 0.066704
C 0.000000 0.000000 0.294600 0.728841
C 0.000000 0.000000 0.403800 0.066701
C 0.294600 0.705400 0.000000 0.728832
C 0.403800 0.596200 0.000000 0.066704
C 0.000000 0.000000 0.705400 0.728841
C 0.000000 0.000000 0.596200 0.066700
C 0.705400 0.000000 0.000000 0.728841
C 0.596200 -0.000000 -0.000000 0.066703
C 0.000000 0.294600 0.705400 0.728832
C 0.000000 0.403800 0.596200 0.066705
C 0.294600 0.000000 0.000000 0.728841
C 0.403800 0.000000 -0.000000 0.066700
C 0.000000 0.705400 0.294600 0.728832
C 0.000000 0.596200 0.403800 0.066705
O 0.731400 0.076600 0.268600 -0.796769
O 0.076600 0.731400 0.923400 -0.796776
O 0.268600 0.923400 0.731400 -0.796768
O 0.923400 0.268600 0.076600 -0.796776
O 0.731400 0.268600 0.923400 -0.796769
O 0.076600 0.923400 0.268600 -0.796776
O 0.268600 0.731400 0.076600 -0.796769
O 0.923400 0.076600 0.731400 -0.796776
O 0.731400 0.923400 0.076600 -0.796776
O 0.076600 0.268600 0.731400 -0.796769
O 0.268600 0.076600 0.923400 -0.796776
O 0.923400 0.731400 0.268600 -0.796769
O 0.923400 0.268600 0.731400 -0.796768
O 0.268600 0.923400 0.076600 -0.796776
O 0.076600 0.731400 0.268600 -0.796768
O 0.731400 0.076600 0.923400 -0.796776
O 0.731400 0.268600 0.076600 -0.796769
O 0.076600 0.923400 0.731400 -0.796776
O 0.268600 0.731400 0.923400 -0.796769
O 0.923400 0.076600 0.268600 -0.796776
O 0.076600 0.268600 0.923400 -0.796776
O 0.731400 0.923400 0.268600 -0.796769
O 0.923400 0.731400 0.076600 -0.796776
O 0.268600 0.076600 0.731400 -0.796769
O 0.056100 0.056100 0.056100 -1.208124
O 0.056100 0.056100 0.831700 -1.208122
O 0.056100 0.831700 0.056100 -1.208122
O 0.831700 0.056100 0.056100 -1.208122
O 0.943900 0.943900 0.943900 -1.208124
O 0.943900 0.943900 0.168300 -1.208122
O 0.168300 0.943900 0.943900 -1.208122
O 0.943900 0.168300 0.943900 -1.208122
H 0.590460 0.147510 0.409540 0.108442
H 0.147510 0.590460 0.852490 0.108444
H 0.409540 0.852490 0.590460 0.108443
H 0.852490 0.409540 0.147510 0.108444
H 0.590460 0.409540 0.852490 0.108442
H 0.147510 0.852490 0.409540 0.108443
H 0.409540 0.590460 0.147510 0.108443
H 0.852490 0.147510 0.590460 0.108443
H 0.590460 0.852490 0.147510 0.108443
H 0.147510 0.409540 0.590460 0.108442
H 0.409540 0.147510 0.852490 0.108443
H 0.852490 0.590460 0.409540 0.108442
H 0.852490 0.409540 0.590460 0.108443
H 0.409540 0.852490 0.147510 0.108443
H 0.147510 0.590460 0.409540 0.108443
H 0.590460 0.147510 0.852490 0.108444
H 0.590460 0.409540 0.147510 0.108442
H 0.147510 0.852490 0.590460 0.108443
H 0.409540 0.590460 0.852490 0.108443
H 0.852490 0.147510 0.409540 0.108443
H 0.147510 0.409540 0.852490 0.108443
H 0.590460 0.852490 0.409540 0.108442
H 0.852490 0.590460 0.147510 0.108443
H 0.409540 0.147510 0.590460 0.108442
