data_VEBHUG_clean_PM
_symmetry_space_group_name_H-M   'P 1'
_cell_length_a 20.636200
_cell_length_b 20.636200
_cell_length_c 20.636200
_cell_angle_alpha 60.000000
_cell_angle_beta 60.000000
_cell_angle_gamma 60.000000
_symmetry_Int_Tables_number 1

loop_
_symmetry_equiv_pos_as_xyz
 'x, y, z'

loop_
_atom_site_label
_atom_site_fract_x
_atom_site_fract_y
_atom_site_fract_z
_atom_site_charge
Zn 0.211600 0.365180 0.211610 -4.066203
Zn 0.365170 0.211610 0.211610 -4.065553
Zn 0.211600 0.211610 0.211610 -4.066201
Zn 0.211600 0.211610 0.365180 -4.066206
Zn 0.634830 0.788390 0.788390 -4.065553
Zn 0.788400 0.634820 0.788390 -4.066203
Zn 0.788400 0.788390 0.788390 -4.066200
Zn 0.788400 0.788390 0.634820 -4.066205
H 0.057000 0.348600 0.057000 0.364347
H 0.348600 0.057000 0.537400 0.364316
H 0.057000 0.537400 0.057000 0.364347
H 0.537400 0.057000 0.348600 0.364294
H 0.057000 0.057000 0.537400 0.364347
H 0.348600 0.537400 0.057000 0.364316
H 0.057000 0.057000 0.348600 0.364347
H 0.537400 0.348600 0.057000 0.364294
H 0.057000 0.537400 0.348600 0.364347
H 0.348600 0.057000 0.057000 0.364316
H 0.057000 0.348600 0.537400 0.364347
H 0.537400 0.057000 0.057000 0.364294
H 0.651400 0.943000 0.943000 0.364316
H 0.943000 0.651400 0.462600 0.364347
H 0.462600 0.943000 0.943000 0.364294
H 0.943000 0.462600 0.651400 0.364347
H 0.943000 0.943000 0.462600 0.364347
H 0.462600 0.651400 0.943000 0.364294
H 0.943000 0.943000 0.651400 0.364347
H 0.651400 0.462600 0.943000 0.364316
H 0.462600 0.943000 0.651400 0.364294
H 0.943000 0.651400 0.943000 0.364347
H 0.651400 0.943000 0.462600 0.364316
H 0.943000 0.462600 0.943000 0.364347
C 0.047400 0.401200 0.047400 0.285501
C 0.401200 0.047400 0.504000 0.285422
C 0.047400 0.504000 0.047400 0.285502
C 0.504000 0.047400 0.401200 0.285411
C 0.047400 0.047400 0.504000 0.285502
C 0.401200 0.504000 0.047400 0.285422
C 0.047400 0.047400 0.401200 0.285501
C 0.504000 0.401200 0.047400 0.285411
C 0.047400 0.504000 0.401200 0.285501
C 0.401200 0.047400 0.047400 0.285423
C 0.047400 0.401200 0.504000 0.285501
C 0.504000 0.047400 0.047400 0.285412
C 0.598800 0.952600 0.952600 0.285422
C 0.952600 0.598800 0.496000 0.285501
C 0.496000 0.952600 0.952600 0.285412
C 0.952600 0.496000 0.598800 0.285501
C 0.952600 0.952600 0.496000 0.285502
C 0.496000 0.598800 0.952600 0.285411
C 0.952600 0.952600 0.598800 0.285501
C 0.598800 0.496000 0.952600 0.285422
C 0.496000 0.952600 0.598800 0.285411
C 0.952600 0.598800 0.952600 0.285501
C 0.598800 0.952600 0.496000 0.285422
C 0.952600 0.496000 0.952600 0.285502
C 0.128240 0.371760 0.128240 -4.809238
C 0.077110 0.422890 0.077110 1.354780
C 0.371760 0.128240 0.371760 -4.808388
C 0.422890 0.077110 0.422890 1.354639
C 0.128240 0.128240 0.371760 -4.809240
C 0.077110 0.077110 0.422890 1.354781
C 0.371760 0.371760 0.128240 -4.808388
C 0.422890 0.422890 0.077110 1.354638
C 0.128240 0.371760 0.371760 -4.809237
C 0.077110 0.422890 0.422890 1.354780
C 0.371760 0.128240 0.128240 -4.808390
C 0.422890 0.077110 0.077110 1.354639
C 0.628240 0.871760 0.871760 -4.808388
C 0.577110 0.922890 0.922890 1.354638
C 0.871760 0.628240 0.628240 -4.809237
C 0.922890 0.577110 0.577110 1.354780
C 0.871760 0.871760 0.628240 -4.809240
C 0.922890 0.922890 0.577110 1.354781
C 0.628240 0.628240 0.871760 -4.808387
C 0.577110 0.577110 0.922890 1.354638
C 0.628240 0.871760 0.628240 -4.808388
C 0.577110 0.922890 0.577110 1.354638
C 0.871760 0.628240 0.871760 -4.809238
C 0.922890 0.577110 0.922890 1.354780
C 0.000000 0.466880 0.000000 -0.080163
C 0.466880 0.000000 0.533120 -0.080138
C 0.000000 0.533120 0.000000 -0.080163
C 0.533120 -0.000000 0.466880 -0.080138
C 0.000000 0.000000 0.533120 -0.080163
C 0.466880 0.533120 0.000000 -0.080138
C 0.000000 0.000000 0.466880 -0.080163
C 0.533120 0.466880 -0.000000 -0.080138
C 0.000000 0.533120 0.466880 -0.080162
C 0.466880 0.000000 0.000000 -0.080138
C 0.000000 0.466880 0.533120 -0.080162
C 0.533120 -0.000000 0.000000 -0.080138
O 0.250000 0.250000 0.250000 6.790406
O 0.750000 0.750000 0.750000 6.790406
O 0.146840 0.409160 0.146840 1.906983
O 0.409160 0.146840 0.297160 1.906612
O 0.146840 0.297160 0.146840 1.906983
O 0.297160 0.146840 0.409160 1.906709
O 0.146840 0.146840 0.297160 1.906984
O 0.409160 0.297160 0.146840 1.906611
O 0.146840 0.146840 0.409160 1.906984
O 0.297160 0.409160 0.146840 1.906709
O 0.146840 0.297160 0.409160 1.906983
O 0.409160 0.146840 0.146840 1.906612
O 0.146840 0.409160 0.297160 1.906983
O 0.297160 0.146840 0.146840 1.906709
O 0.590840 0.853160 0.853160 1.906611
O 0.853160 0.590840 0.702840 1.906983
O 0.702840 0.853160 0.853160 1.906709
O 0.853160 0.702840 0.590840 1.906983
O 0.853160 0.853160 0.702840 1.906983
O 0.702840 0.590840 0.853160 1.906708
O 0.853160 0.853160 0.590840 1.906983
O 0.590840 0.702840 0.853160 1.906611
O 0.702840 0.853160 0.590840 1.906709
O 0.853160 0.590840 0.853160 1.906983
O 0.590840 0.853160 0.702840 1.906611
O 0.853160 0.702840 0.853160 1.906983
