data_WONKOB_PM
_symmetry_space_group_name_H-M   'P 1'
_cell_length_a 6.918600
_cell_length_b 6.918600
_cell_length_c 7.906100
_cell_angle_alpha 90.000000
_cell_angle_beta 90.000000
_cell_angle_gamma 90.000000
_symmetry_Int_Tables_number 1

loop_
_symmetry_equiv_pos_as_xyz
 'x, y, z'

loop_
_atom_site_label
_atom_site_fract_x
_atom_site_fract_y
_atom_site_fract_z
_atom_site_charge
N 0.500000 0.217000 0.500000 -0.435328
C 0.500000 0.089300 0.384300 0.096989
H 0.500000 0.140100 0.279800 0.159455
Cu 0.500000 0.500000 0.500000 1.184225
F 0.500000 0.500000 0.232000 -0.591378
F 0.331300 0.331300 0.000000 -0.477543
Si 0.500000 0.500000 0.000000 1.598464
N 0.500000 0.783000 0.500000 -0.435328
N 0.783000 0.500000 0.500000 -0.435328
N 0.217000 0.500000 0.500000 -0.435328
C 0.500000 0.910700 0.384300 0.096989
C 0.910700 0.500000 0.384300 0.096989
C 0.089300 0.500000 0.384300 0.096989
C 0.500000 0.089300 0.615700 0.096989
C 0.500000 0.910700 0.615700 0.096989
C 0.089300 0.500000 0.615700 0.096989
C 0.910700 0.500000 0.615700 0.096989
H 0.500000 0.859900 0.279800 0.159455
H 0.859900 0.500000 0.279800 0.159455
H 0.140100 0.500000 0.279800 0.159455
H 0.500000 0.140100 0.720200 0.159455
H 0.500000 0.859900 0.720200 0.159455
H 0.140100 0.500000 0.720200 0.159455
H 0.859900 0.500000 0.720200 0.159455
F 0.500000 0.500000 0.768000 -0.591378
F 0.668700 0.668700 0.000000 -0.477543
F 0.668700 0.331300 0.000000 -0.477543
F 0.331300 0.668700 0.000000 -0.477543
